
     RDKit          3D

  4  1  0  0  0  0  0  0  0  0999 V2000
    0.0000    0.0000    0.0000 C   0  0  0  0  0  0  0  0  0  0  0  0
    0.0000    0.0000    0.0000 C   0  0  0  0  0  0  0  0  0  0  0  0
    0.7520    0.0000    0.0000 C   0  0  0  0  0  0  0  0  0  0  0  0
   -0.7520    0.0000    0.0000 C   0  0  0  0  0  0  0  0  0  0  0  0
  3  4  1  0
M  END

