7upj_3aid
  DSViewer          3D                             0

 34 38  0  0  0  0  0  0  0  0999 V2000
    5.9190   -0.9650   14.1770 C   0  0  0  0  0  0  0  0  0
    6.0720   -2.2220   13.5130 C   0  0  0  0  0  0  0  0  0
    6.1480   -2.2570   12.3280 O   0  0  0  0  0  0  0  0  0
    6.0860   -3.4050   14.1600 O   0  0  0  0  0  0  0  0  0
    5.9230   -3.3230   15.5580 C   0  0  0  0  0  0  0  0  0
    5.7560   -2.1330   16.2820 C   0  0  0  0  0  0  0  0  0
    5.7560   -0.9350   15.5690 C   0  0  0  0  0  0  0  0  0
    5.5940    0.2340   16.2590 O   0  0  0  0  0  0  0  0  0
    4.5070    0.5860   12.8140 C   0  0  0  0  0  0  0  0  0
    3.3540    0.3830   13.6150 C   0  0  0  0  0  0  0  0  0
    2.0850    0.6860   13.0910 C   0  0  0  0  0  0  0  0  0
    1.9170    1.1850   11.7940 C   0  0  0  0  0  0  0  0  0
    3.0590    1.4020   10.9760 C   0  0  0  0  0  0  0  0  0
    4.3500    1.0910   11.4950 C   0  0  0  0  0  0  0  0  0
    5.8760    0.3330   13.3920 C   0  0  0  0  0  0  0  0  0
    7.0580    0.5000   12.4120 C   0  0  0  0  0  0  0  0  0
    8.3690    1.0440   12.9560 C   0  0  0  0  0  0  0  0  0
    7.5390    1.8710   11.9780 C   0  0  0  0  0  0  0  0  0
    5.9270   -4.6980   16.2090 C   0  0  0  0  0  0  0  0  0
    4.5660   -5.3550   16.2950 C   0  0  0  0  0  0  0  0  0
    3.4400   -4.4450   16.7590 C   0  0  0  0  0  0  0  0  0
    3.5820   -3.8870   18.1930 C   0  0  0  0  0  0  0  0  0
    4.0970   -2.4340   18.3200 C   0  0  0  0  0  0  0  0  0
    5.5590   -2.1450   17.7850 C   0  0  0  0  0  0  0  0  0
    2.8940    2.0220    9.6940 N   0  0  0  0  0  0  0  0  0
    2.8620    3.6890    9.6740 S   0  0  0  0  0  0  0  0  0
    2.3080    4.0000    8.3740 O   0  0  0  0  0  0  0  0  0
    2.0830    4.0930   10.8090 O   0  0  0  0  0  0  0  0  0
    4.5380    4.1630    9.7380 C   0  0  0  0  0  0  0  0  0
    5.3380    3.9850    8.5720 C   0  0  0  0  0  0  0  0  0
    6.6840    4.3350    8.6020 C   0  0  0  0  0  0  0  0  0
    7.2550    4.8640    9.7790 C   0  0  0  0  0  0  0  0  0
    6.4720    5.0400   10.9390 C   0  0  0  0  0  0  0  0  0
    5.1140    4.6920   10.9310 C   0  0  0  0  0  0  0  0  0
  1  2  1  0  0  0
  1  7  2  0  0  0
  1 15  1  0  0  0
  2  3  2  0  0  0
  2  4  1  0  0  0
  4  5  1  0  0  0
  5  6  2  0  0  0
  5 19  1  0  0  0
  6  7  1  0  0  0
  6 24  1  0  0  0
  7  8  1  0  0  0
  9 10  1  0  0  0
  9 14  2  0  0  0
  9 15  1  0  0  0
 10 11  2  0  0  0
 11 12  1  0  0  0
 12 13  2  0  0  0
 13 14  1  0  0  0
 13 25  1  0  0  0
 15 16  1  0  0  0
 16 17  1  0  0  0
 16 18  1  0  0  0
 17 18  1  0  0  0
 19 20  1  0  0  0
 20 21  1  0  0  0
 21 22  1  0  0  0
 22 23  1  0  0  0
 23 24  1  0  0  0
 25 26  1  0  0  0
 27 26  2  0  0  0
 28 26  2  0  0  0
 29 26  1  0  0  0
 29 30  2  0  0  0
 29 34  1  0  0  0
 30 31  1  0  0  0
 31 32  2  0  0  0
 32 33  1  0  0  0
 33 34  2  0  0  0
M  END
