
     RDKit          3D

  0  0  0  0  0  0  0  0  0  0999 V3000
M  V30 BEGIN CTAB
M  V30 COUNTS 71 75 0 0 0
M  V30 BEGIN ATOM
M  V30 1 F -0.784672 -3.743455 -2.689937 0
M  V30 2 F -2.641265 -2.081796 -4.824332 0
M  V30 3 O 7.104772 -0.293903 0.472581 0
M  V30 4 O -2.541436 2.328898 3.315650 0
M  V30 5 O -5.389442 -4.075572 -0.497364 0
M  V30 6 N 1.599615 -0.209317 1.398516 0
M  V30 7 N 4.632249 -1.228425 0.864810 0
M  V30 8 N -3.081368 0.559683 1.400663 0
M  V30 9 N -0.520610 1.075999 2.297400 0
M  V30 10 N -3.469518 -1.288322 -0.651507 0
M  V30 11 N -6.889873 2.280809 0.479881 0
M  V30 12 C 2.658010 0.797339 0.540851 0
M  V30 13 C 3.931948 -0.155646 -0.225358 0
M  V30 14 C 2.287894 -1.355948 2.426855 0
M  V30 15 C 3.519539 -2.273725 1.581642 0
M  V30 16 C 0.061400 0.039931 1.385850 0
M  V30 17 C 3.308719 2.039933 1.602252 0
M  V30 18 C -0.935595 -0.855518 0.335183 0
M  V30 19 C 6.213187 -1.196652 1.103110 0
M  V30 20 C -2.509234 -0.567626 0.349567 0
M  V30 21 C -4.707604 0.847360 1.436086 0
M  V30 22 C -2.073209 1.381066 2.370393 0
M  V30 23 C -0.348433 -1.942896 -0.694659 0
M  V30 24 C -5.369691 1.955133 0.501134 0
M  V30 25 C -4.400605 2.882999 -0.573147 0
M  V30 26 C 6.870980 -2.319238 2.193493 0
M  V30 27 C -1.332333 -2.702879 -1.695518 0
M  V30 28 C -5.667673 0.020395 2.411827 0
M  V30 29 C -2.872265 -2.332977 -1.633260 0
M  V30 30 C -4.838347 2.624734 -2.268941 0
M  V30 31 C -4.442039 4.611854 -0.194873 0
M  V30 32 C -7.238091 0.322242 2.422776 0
M  V30 33 C -3.975529 -3.053888 -2.642492 0
M  V30 34 C -5.047449 -1.195364 3.454980 0
M  V30 35 C -7.786825 1.453629 1.443815 0
M  V30 36 C 8.305718 -2.816447 1.969792 0
M  V30 37 C -5.199446 -3.901248 -2.044381 0
M  V30 38 C -3.809578 -2.895451 -4.230085 0
M  V30 39 C -6.257841 -4.589742 -3.034291 0
M  V30 40 C -4.867758 -3.584159 -5.219995 0
M  V30 41 C -6.092105 -4.431090 -4.621884 0
M  V30 42 H 2.019538 1.381710 -0.378643 0
M  V30 43 H 3.447191 -0.851654 -1.159451 0
M  V30 44 H 4.797771 0.599829 -0.741031 0
M  V30 45 H 1.406613 -2.147061 2.860089 0
M  V30 46 H 2.784674 -0.771362 3.427071 0
M  V30 47 H 4.059471 -3.085447 2.370179 0
M  V30 48 H 3.009019 -2.960071 0.655707 0
M  V30 49 H 3.984117 1.551096 2.545791 0
M  V30 50 H 2.383858 2.724777 2.113630 0
M  V30 51 H 4.056895 2.823102 0.959486 0
M  V30 52 H 0.869687 -2.201161 -0.752624 0
M  V30 53 H -3.187207 2.558182 -0.491567 0
M  V30 54 H 6.227785 -2.696224 3.189200 0
M  V30 55 H -4.062906 3.259986 -3.031500 0
M  V30 56 H -4.763851 1.403393 -2.569714 0
M  V30 57 H -6.015033 3.007946 -2.506382 0
M  V30 58 H -4.080295 4.817093 0.994480 0
M  V30 59 H -3.666598 5.253117 -0.952710 0
M  V30 60 H -5.600477 5.088240 -0.332915 0
M  V30 61 H -8.024266 -0.298412 3.166229 0
M  V30 62 H -4.168531 -0.720481 4.221189 0
M  V30 63 H -5.948481 -1.686133 4.186625 0
M  V30 64 H -4.552387 -2.140835 2.786881 0
M  V30 65 H -9.002584 1.732934 1.407962 0
M  V30 66 H 8.817955 -3.621085 2.774859 0
M  V30 67 H 9.002584 -2.459856 0.998773 0
M  V30 68 H -7.217267 -5.253117 -2.585171 0
M  V30 69 H -4.738948 -3.460072 -6.456149 0
M  V30 70 H -6.915849 -4.966728 -5.392816 0
M  V30 71 H -6.300993 -4.695152 -0.306938 0
M  V30 END ATOM
M  V30 BEGIN BOND
M  V30 1 1 1 27
M  V30 2 1 2 38
M  V30 3 2 3 19
M  V30 4 2 4 22
M  V30 5 1 5 37
M  V30 6 1 5 71
M  V30 7 1 6 12
M  V30 8 1 6 14
M  V30 9 1 6 16
M  V30 10 1 7 13
M  V30 11 1 7 15
M  V30 12 1 7 19
M  V30 13 1 8 20
M  V30 14 1 8 21
M  V30 15 1 8 22 CFG=1
M  V30 16 2 9 16
M  V30 17 1 9 22
M  V30 18 1 10 20
M  V30 19 2 10 29
M  V30 20 2 11 24
M  V30 21 1 11 35
M  V30 22 1 12 13
M  V30 23 1 12 17
M  V30 24 1 12 42
M  V30 25 1 13 43
M  V30 26 1 13 44
M  V30 27 1 14 15
M  V30 28 1 14 45
M  V30 29 1 14 46
M  V30 30 1 15 47
M  V30 31 1 15 48
M  V30 32 1 16 18
M  V30 33 1 17 49
M  V30 34 1 17 50
M  V30 35 1 17 51
M  V30 36 2 18 20
M  V30 37 1 18 23
M  V30 38 1 19 26
M  V30 39 1 21 24
M  V30 40 2 21 28
M  V30 41 2 23 27
M  V30 42 1 23 52
M  V30 43 1 24 25
M  V30 44 1 25 30
M  V30 45 1 25 31
M  V30 46 1 25 53
M  V30 47 2 26 36
M  V30 48 1 26 54
M  V30 49 1 27 29
M  V30 50 1 28 32
M  V30 51 1 28 34
M  V30 52 1 29 33
M  V30 53 1 30 55
M  V30 54 1 30 56
M  V30 55 1 30 57
M  V30 56 1 31 58
M  V30 57 1 31 59
M  V30 58 1 31 60
M  V30 59 2 32 35
M  V30 60 1 32 61
M  V30 61 2 33 37
M  V30 62 1 33 38
M  V30 63 1 34 62
M  V30 64 1 34 63
M  V30 65 1 34 64
M  V30 66 1 35 65
M  V30 67 1 36 66
M  V30 68 1 36 67
M  V30 69 1 37 39
M  V30 70 2 38 40
M  V30 71 2 39 41
M  V30 72 1 39 68
M  V30 73 1 40 41
M  V30 74 1 40 69
M  V30 75 1 41 70
M  V30 END BOND
M  V30 END CTAB
M  END
