
     RDKit          3D

  0  0  0  0  0  0  0  0  0  0999 V3000
M  V30 BEGIN CTAB
M  V30 COUNTS 29 29 0 0 0
M  V30 BEGIN ATOM
M  V30 1 C -2.271719 -1.297574 -0.275743 0 CFG=2
M  V30 2 C -2.960742 -0.108151 0.333533 0 CFG=1
M  V30 3 C -2.276603 1.142820 -0.215630 0 CFG=2
M  V30 4 C -0.807701 1.051813 0.200191 0 CFG=1
M  V30 5 C -0.257332 -0.229023 -0.412159 0 CFG=1
M  V30 6 C 1.176341 -0.487698 -0.052713 0 CFG=2
M  V30 7 O -2.896061 -2.497679 0.097593 0
M  V30 8 O -4.297986 -0.147526 0.010192 0
M  V30 9 O -2.895009 2.238490 0.335298 0
M  V30 10 O -0.151207 2.118049 -0.366709 0
M  V30 11 O -0.955838 -1.335529 0.032629 0
M  V30 12 C 2.155019 0.550499 -0.466310 0 CFG=1
M  V30 13 P 3.787109 -0.071015 0.108124 0 CFG=2
M  V30 14 O 3.682037 -0.278070 1.605143 0
M  V30 15 O 5.020474 0.957677 -0.343256 0 CHG=-1
M  V30 16 O 3.949218 -1.607084 -0.590182 0 CHG=-1
M  V30 17 H -2.337968 -1.187192 -1.406886 0
M  V30 18 H -2.815253 -0.154589 1.439834 0
M  V30 19 H -2.399154 1.143637 -1.297038 0
M  V30 20 H -0.756646 1.105598 1.281380 0
M  V30 21 H -0.384448 -0.168903 -1.509574 0
M  V30 22 H 1.462397 -1.433844 -0.578569 0
M  V30 23 H 1.289312 -0.706517 1.026045 0
M  V30 24 H -3.498652 -2.751301 -0.628180 0
M  V30 25 H -4.411239 0.237229 -0.877694 0
M  V30 26 H -3.390002 2.052112 1.183332 0
M  V30 27 H -0.316442 2.057553 -1.353106 0
M  V30 28 H 2.207336 0.733167 -1.537732 0
M  V30 29 H 2.028167 1.510524 0.115644 0
M  V30 END ATOM
M  V30 BEGIN BOND
M  V30 1 1 1 2
M  V30 2 1 1 7
M  V30 3 1 1 11
M  V30 4 1 2 3
M  V30 5 1 2 8
M  V30 6 1 3 4
M  V30 7 1 3 9
M  V30 8 1 4 5
M  V30 9 1 4 10
M  V30 10 1 5 6
M  V30 11 1 5 11
M  V30 12 1 6 12
M  V30 13 1 12 13
M  V30 14 2 13 14
M  V30 15 1 13 15 CFG=1
M  V30 16 1 13 16
M  V30 17 1 1 17 CFG=3
M  V30 18 1 2 18 CFG=1
M  V30 19 1 3 19 CFG=3
M  V30 20 1 4 20 CFG=1
M  V30 21 1 5 21 CFG=3
M  V30 22 1 6 22 CFG=3
M  V30 23 1 6 23
M  V30 24 1 7 24
M  V30 25 1 8 25
M  V30 26 1 9 26
M  V30 27 1 10 27
M  V30 28 1 12 28 CFG=1
M  V30 29 1 12 29
M  V30 END BOND
M  V30 END CTAB
M  END
