mol-295
XXCombChem04050707333D                 0.00000

 22 24  0  0  1  0  0  0  0  0999 V2000
    2.3200    0.0800   -0.1000 C   0  0  0  0  0  0  0  0  0  0  0  0
    1.8400   -1.2200    0.1200 C   0  0  0  0  0  0  0  0  0  0  0  0
    3.6800    0.0800    0.2600 C   0  0  0  0  0  0  0  0  0  0  0  0
    1.7400    1.2800   -0.5600 C   0  0  0  0  0  0  0  0  0  0  0  0
    2.9400   -1.9200    0.6000 C   0  0  0  0  0  0  0  0  0  0  0  0
    0.5400   -1.7400   -0.0800 C   0  0  0  0  0  0  0  0  0  0  0  0
    4.0200   -1.1400    0.6600 N   0  0  0  0  0  0  0  0  0  0  0  0
    4.4600    1.2600    0.1600 C   0  0  0  0  0  0  0  0  0  0  0  0
    2.5200    2.4600   -0.6600 C   0  0  0  0  0  0  0  0  0  0  0  0
   -0.3800   -1.0400   -0.5000 O   0  0  0  0  0  0  0  0  0  0  0  0
    0.3000   -2.9200    0.1800 O   0  0  0  0  0  0  0  0  0  0  0  0
    3.8800    2.4400   -0.3000 C   0  0  0  0  0  0  0  0  0  0  0  0
   -1.6800   -1.2400   -0.7800 C   0  0  0  0  0  0  0  0  0  0  0  0
   -2.5800   -0.3200    0.1000 C   0  0  2  0  0  0  0  0  0  0  0  0
   -4.0600   -0.6200   -0.0200 N   0  0  0  0  0  0  0  0  0  0  0  0
   -2.2800    1.1800   -0.1400 C   0  0  0  0  0  0  0  0  0  0  0  0
   -4.8800    0.2200    0.9200 C   0  0  0  0  0  0  0  0  0  0  0  0
   -4.6200   -0.6400   -1.3800 C   0  0  0  0  0  0  0  0  0  0  0  0
   -3.1400    2.0800    0.8000 C   0  0  0  0  0  0  0  0  0  0  0  0
   -4.6400    1.7400    0.7200 C   0  0  0  0  0  0  0  0  0  0  0  0
    4.9200   -1.4200    0.9800 H   0  0  0  0  0  0  0  0  0  0  0  0
   -2.3000   -0.5400    1.1400 H   0  0  0  0  0  0  0  0  0  0  0  0
  1  2  1  0  0  0  0
  1  3  1  0  0  0  0
  1  4  2  0  0  0  0
  2  5  2  0  0  0  0
  2  6  1  0  0  0  0
  3  7  1  0  0  0  0
  3  8  2  0  0  0  0
  4  9  1  0  0  0  0
  6 10  1  0  0  0  0
  6 11  2  0  0  0  0
  8 12  1  0  0  0  0
 10 13  1  0  0  0  0
 13 14  1  0  0  0  0
 14 15  1  0  0  0  0
 14 16  1  0  0  0  0
 15 17  1  0  0  0  0
 15 18  1  0  0  0  0
 16 19  1  0  0  0  0
 17 20  1  0  0  0  0
  5  7  1  0  0  0  0
  9 12  2  0  0  0  0
 19 20  1  0  0  0  0
  7 21  1  0  0  0  0
 14 22  1  0  0  0  0
M  END

$$$$
mol-54
XXCombChem04050707333D                 0.00000

 24 26  0  0  0  0  0  0  0  0999 V2000
    0.8000   -1.0800   -0.5600 C   0  0  0  0  0  0  0  0  0  0  0  0
    1.5200   -2.3000   -0.4200 C   0  0  0  0  0  0  0  0  0  0  0  0
   -0.5400   -0.9600   -1.0000 C   0  0  0  0  0  0  0  0  0  0  0  0
    1.5400    0.1000   -0.2200 C   0  0  0  0  0  0  0  0  0  0  0  0
    2.8400   -2.3200    0.0200 C   0  0  0  0  0  0  0  0  0  0  0  0
    0.9000   -3.4000   -0.7200 O   0  0  0  0  0  0  0  0  0  0  0  0
   -1.4600    0.0000   -0.6400 N   0  0  0  0  0  0  0  0  0  0  0  0
   -0.9800   -1.8000   -1.7800 O   0  0  0  0  0  0  0  0  0  0  0  0
    2.8600    0.0800    0.2400 C   0  0  0  0  0  0  0  0  0  0  0  0
    3.5400   -1.1600    0.3600 C   0  0  0  0  0  0  0  0  0  0  0  0
    1.2400   -4.7000   -0.7200 C   0  0  0  0  0  0  0  0  0  0  0  0
   -2.8200    0.1400   -1.0800 C   0  0  3  0  0  0  0  0  0  0  0  0
    3.6000    1.5800    0.6000 Cl  0  0  0  0  0  0  0  0  0  0  0  0
    4.8200   -1.2400    0.7600 N   0  0  0  0  0  0  0  0  0  0  0  0
    0.8800   -5.3600    0.6400 C   0  0  0  0  0  0  0  0  0  0  0  0
   -3.5400    1.4200   -0.5200 C   0  0  0  0  0  0  0  0  0  0  0  0
   -3.7200   -1.1200   -0.7000 C   0  0  0  0  0  0  0  0  0  0  0  0
    1.6400   -4.7200    1.7000 O   0  0  0  0  0  0  0  0  0  0  0  0
   -3.8200    1.2600    1.0000 C   0  0  0  0  0  0  0  0  0  0  0  0
   -4.9400    1.5400   -1.2400 C   0  0  0  0  0  0  0  0  0  0  0  0
   -5.0000   -0.7200   -0.0600 N   0  0  0  0  0  0  0  0  0  0  0  0
    1.3400   -5.3200    2.9800 C   0  0  0  0  0  0  0  0  0  0  0  0
   -4.7200   -0.0200    1.2400 C   0  0  0  0  0  0  0  0  0  0  0  0
   -5.7600    0.2400   -0.9800 C   0  0  0  0  0  0  0  0  0  0  0  0
  1  2  1  0  0  0  0
  1  3  1  0  0  0  0
  1  4  2  0  0  0  0
  2  5  2  0  0  0  0
  2  6  1  0  0  0  0
  3  7  1  0  0  0  0
  3  8  2  0  0  0  0
  4  9  1  0  0  0  0
  5 10  1  0  0  0  0
  6 11  1  0  0  0  0
  7 12  1  0  0  0  0
  9 13  1  0  0  0  0
 10 14  1  0  0  0  0
 11 15  1  0  0  0  0
 12 16  1  0  0  0  0
 12 17  1  0  0  0  0
 15 18  1  0  0  0  0
 16 19  1  0  0  0  0
 16 20  1  0  0  0  0
 17 21  1  0  0  0  0
 18 22  1  0  0  0  0
 19 23  1  0  0  0  0
 20 24  1  0  0  0  0
  9 10  2  0  0  0  0
 21 23  1  0  0  0  0
 21 24  1  0  0  0  0
M  END

$$$$
mol-15
XXCombChem04050707333D                 0.00000

 25 28  0  0  0  0  0  0  0  0999 V2000
    1.5000   -0.6400   -0.4600 C   0  0  0  0  0  0  0  0  0  0  0  0
    2.3600   -1.5600    0.1800 C   0  0  0  0  0  0  0  0  0  0  0  0
    2.1600    0.5800   -0.4600 C   0  0  0  0  0  0  0  0  0  0  0  0
    0.2400   -1.0000   -0.9400 C   0  0  0  0  0  0  0  0  0  0  0  0
    3.4800   -0.9200    0.6000 N   0  0  0  0  0  0  0  0  0  0  0  0
    2.0000   -2.9800    0.3200 C   0  0  0  0  0  0  0  0  0  0  0  0
    3.4000    0.3600    0.2000 C   0  0  0  0  0  0  0  0  0  0  0  0
    1.8400    1.8600   -0.9600 C   0  0  0  0  0  0  0  0  0  0  0  0
   -0.3000   -2.3200   -0.7200 C   0  0  3  0  0  0  0  0  0  0  0  0
   -0.4400   -0.1800   -1.5600 O   0  0  0  0  0  0  0  0  0  0  0  0
    4.5800   -1.5200    1.3400 C   0  0  0  0  0  0  0  0  0  0  0  0
    0.8400   -3.4000   -0.6400 C   0  0  0  0  0  0  0  0  0  0  0  0
    4.3000    1.4400    0.3600 C   0  0  0  0  0  0  0  0  0  0  0  0
    2.7600    2.9200   -0.8000 C   0  0  0  0  0  0  0  0  0  0  0  0
   -1.2400   -2.3600    0.5400 C   0  0  0  0  0  0  0  0  0  0  0  0
    5.7800   -1.4400    0.6400 C   0  0  0  0  0  0  0  0  0  0  0  0
    3.9800    2.7200   -0.1600 C   0  0  0  0  0  0  0  0  0  0  0  0
   -2.4200   -1.4600    0.4600 C   0  0  0  0  0  0  0  0  0  0  0  0
    6.8000   -1.3800    0.0400 C   0  0  0  0  0  0  0  0  0  0  0  0
   -3.4400   -1.4800   -0.4800 C   0  0  0  0  0  0  0  0  0  0  0  0
   -2.6600   -0.5000    1.3400 N   0  0  0  0  0  0  0  0  0  0  0  0
   -4.2800   -0.4600   -0.1400 N   0  0  0  0  0  0  0  0  0  0  0  0
   -3.6000   -2.3600   -1.6200 C   0  0  0  0  0  0  0  0  0  0  0  0
   -3.8000    0.1000    0.9800 C   0  0  0  0  0  0  0  0  0  0  0  0
   -5.1000   -0.2200   -0.6000 H   0  0  0  0  0  0  0  0  0  0  0  0
  1  2  2  0  0  0  0
  1  3  1  0  0  0  0
  1  4  1  0  0  0  0
  2  5  1  0  0  0  0
  2  6  1  0  0  0  0
  3  7  1  0  0  0  0
  3  8  2  0  0  0  0
  4  9  1  0  0  0  0
  4 10  2  0  0  0  0
  5 11  1  0  0  0  0
  6 12  1  0  0  0  0
  7 13  2  0  0  0  0
  8 14  1  0  0  0  0
  9 15  1  0  0  0  0
 11 16  1  0  0  0  0
 13 17  1  0  0  0  0
 15 18  1  0  0  0  0
 16 19  3  0  0  0  0
 18 20  2  0  0  0  0
 18 21  1  0  0  0  0
 20 22  1  0  0  0  0
 20 23  1  0  0  0  0
 21 24  2  0  0  0  0
  5  7  1  0  0  0  0
  9 12  1  0  0  0  0
 14 17  2  0  0  0  0
 22 24  1  0  0  0  0
 22 25  1  0  0  0  0
M  END

$$$$
mol-732
XXCombChem04050707333D                 0.00000

 26 29  0  0  0  0  0  0  0  0999 V2000
    3.2400    0.6400    0.0200 C   0  0  0  0  0  0  0  0  0  0  0  0
    2.0200    0.0800   -0.2400 C   0  0  0  0  0  0  0  0  0  0  0  0
    4.1400   -0.3200    0.1600 N   0  0  0  0  0  0  0  0  0  0  0  0
    3.1800    2.0400    0.0800 C   0  0  0  0  0  0  0  0  0  0  0  0
    2.2000   -1.2800   -0.2800 C   0  0  0  0  0  0  0  0  0  0  0  0
    0.7000    1.1800   -0.4200 S   0  0  0  0  0  0  0  0  0  0  0  0
    3.5200   -1.5200   -0.0400 C   0  0  0  0  0  0  0  0  0  0  0  0
    5.4600   -0.5200    0.4000 C   0  0  0  0  0  0  0  0  0  0  0  0
    1.8600    2.4600   -0.1400 C   0  0  0  0  0  0  0  0  0  0  0  0
    4.3200    2.9200    0.3400 C   0  0  0  0  0  0  0  0  0  0  0  0
    1.2000   -2.1400   -0.5200 N   0  0  0  0  0  0  0  0  0  0  0  0
    4.4600   -2.5200    0.1000 C   0  0  0  0  0  0  0  0  0  0  0  0
    5.6600   -1.9000    0.3400 C   0  0  0  0  0  0  0  0  0  0  0  0
    0.0400   -1.8800   -0.7200 O   0  0  0  0  0  0  0  0  0  0  0  0
   -0.9200   -2.7800   -0.9400 C   0  0  3  0  0  0  0  0  0  0  0  0
   -1.0400   -3.7000    0.2200 C   0  0  0  0  0  0  0  0  0  0  0  0
   -2.2800   -2.0600   -1.2400 C   0  0  0  0  0  0  0  0  0  0  0  0
   -0.7200   -3.2400    1.5400 C   0  0  0  0  0  0  0  0  0  0  0  0
   -1.4600   -5.0400    0.0800 C   0  0  0  0  0  0  0  0  0  0  0  0
   -2.7400   -1.1000   -0.1200 C   0  0  0  0  0  0  0  0  0  0  0  0
   -0.8200   -4.1000    2.6400 C   0  0  0  0  0  0  0  0  0  0  0  0
   -1.5600   -5.9000    1.2000 C   0  0  0  0  0  0  0  0  0  0  0  0
   -3.9400   -0.3000   -0.5200 N   0  0  0  0  0  0  0  0  0  0  0  0
   -1.2200   -5.4200    2.5000 C   0  0  0  0  0  0  0  0  0  0  0  0
   -5.1200   -1.1600   -0.7800 C   0  0  0  0  0  0  0  0  0  0  0  0
   -3.7800    0.4800   -1.7400 C   0  0  0  0  0  0  0  0  0  0  0  0
  2  6  1  0  0  0  0
  3  7  1  0  0  0  0
  3  8  1  0  0  0  0
  4  9  2  0  0  0  0
  4 10  1  0  0  0  0
  5 11  2  0  0  0  0
  7 12  2  0  0  0  0
  8 13  2  0  0  0  0
 11 14  1  0  0  0  0
 14 15  1  0  0  0  0
 15 16  1  0  0  0  0
 15 17  1  0  0  0  0
 16 18  1  0  0  0  0
 16 19  2  0  0  0  0
 17 20  1  0  0  0  0
 18 21  2  0  0  0  0
 19 22  1  0  0  0  0
 20 23  1  0  0  0  0
 21 24  1  0  0  0  0
 23 25  1  0  0  0  0
 23 26  1  0  0  0  0
  5  7  1  0  0  0  0
  6  9  1  0  0  0  0
 12 13  1  0  0  0  0
 22 24  2  0  0  0  0
  1  2  2  0  0  0  0
  1  3  1  0  0  0  0
  1  4  1  0  0  0  0
  2  5  1  0  0  0  0
M  END

$$$$
