
     RDKit          3D

 24 25  0  0  0  0  0  0  0  0999 V2000
   -1.4661   -0.7711    0.1741 C   0  0  0  0  0  0  0  0  0  0  0  0
   -0.0923   -1.0503   -0.1478 C   0  0  0  0  0  0  0  0  0  0  0  0
    0.7393   -0.0336   -0.5911 C   0  0  0  0  0  0  0  0  0  0  0  0
    0.3136    1.2668   -0.3715 C   0  0  0  0  0  0  0  0  0  0  0  0
   -0.5641    1.5394    0.7654 C   0  0  0  0  0  0  0  0  0  0  0  0
    0.9232    2.2468   -1.1531 C   0  0  0  0  0  0  0  0  0  0  0  0
    2.1441    1.9741   -1.7690 C   0  0  0  0  0  0  0  0  0  0  0  0
    2.7590    0.7616   -1.5334 C   0  0  0  0  0  0  0  0  0  0  0  0
    2.0258   -0.3186   -1.0472 C   0  0  0  0  0  0  0  0  0  0  0  0
    2.6556   -1.5061   -0.6818 C   0  0  0  0  0  0  0  0  0  0  0  0
    1.8958   -2.3776    0.0925 C   0  0  0  0  0  0  0  0  0  0  0  0
    0.5217   -2.3032   -0.1034 C   0  0  0  0  0  0  0  0  0  0  0  0
   -2.0124   -0.4323   -0.7435 H   0  0  0  0  0  0  0  0  0  0  0  0
   -1.8553   -0.4042    1.0687 H   0  0  0  0  0  0  0  0  0  0  0  0
   -1.8645   -1.8342    0.1939 H   0  0  0  0  0  0  0  0  0  0  0  0
   -1.5356    1.9542    0.5503 H   0  0  0  0  0  0  0  0  0  0  0  0
   -0.3999    0.9648    1.6904 H   0  0  0  0  0  0  0  0  0  0  0  0
   -0.0274    2.4292    1.2293 H   0  0  0  0  0  0  0  0  0  0  0  0
    0.4963    3.2314   -1.1366 H   0  0  0  0  0  0  0  0  0  0  0  0
    2.4421    2.5750   -2.5987 H   0  0  0  0  0  0  0  0  0  0  0  0
    3.7642    0.5617   -1.8358 H   0  0  0  0  0  0  0  0  0  0  0  0
    3.7343   -1.4773   -0.5223 H   0  0  0  0  0  0  0  0  0  0  0  0
    2.3479   -3.1724    0.6694 H   0  0  0  0  0  0  0  0  0  0  0  0
   -0.0597   -3.1064    0.3604 H   0  0  0  0  0  0  0  0  0  0  0  0
  1  2  1  0
  2  3  2  0
  3  4  1  0
  4  5  1  0
  4  6  2  0
  6  7  1  0
  7  8  2  0
  3  9  1  0
  9 10  2  0
 10 11  1  0
 11 12  2  0
 12  2  1  0
  9  8  1  0
  1 13  1  0
  1 14  1  0
  1 15  1  0
  5 16  1  0
  5 17  1  0
  5 18  1  0
  6 19  1  0
  7 20  1  0
  8 21  1  0
 10 22  1  0
 11 23  1  0
 12 24  1  0
M  END
$$$$

     RDKit          3D

 15 15  0  0  0  0  0  0  0  0999 V2000
    0.6378   -0.4426    0.7864 C   0  0  0  0  0  0  0  0  0  0  0  0
    1.7093   -0.5640   -0.0535 C   0  0  0  0  0  0  0  0  0  0  0  0
    2.0847    0.4816   -0.8655 C   0  0  0  0  0  0  0  0  0  0  0  0
    1.4202    1.6950   -0.8470 C   0  0  0  0  0  0  0  0  0  0  0  0
    0.2520    1.7848   -0.1284 C   0  0  0  0  0  0  0  0  0  0  0  0
   -0.0696    0.7494    0.7210 C   0  0  0  0  0  0  0  0  0  0  0  0
   -1.4441    0.7768    1.2836 C   0  0  0  0  0  0  0  0  0  0  0  0
    0.7395   -0.8052    1.8181 H   0  0  0  0  0  0  0  0  0  0  0  0
    2.5231   -1.1827    0.2832 H   0  0  0  0  0  0  0  0  0  0  0  0
    2.7611    0.3021   -1.6539 H   0  0  0  0  0  0  0  0  0  0  0  0
    1.5804    2.4713   -1.5847 H   0  0  0  0  0  0  0  0  0  0  0  0
   -0.0807    2.7847    0.1122 H   0  0  0  0  0  0  0  0  0  0  0  0
   -1.5035    0.0304    2.0686 H   0  0  0  0  0  0  0  0  0  0  0  0
   -2.1874    0.5430    0.5118 H   0  0  0  0  0  0  0  0  0  0  0  0
   -1.6846    1.7780    1.7049 H   0  0  0  0  0  0  0  0  0  0  0  0
  1  2  2  0
  2  3  1  0
  3  4  2  0
  4  5  1  0
  5  6  2  0
  6  7  1  0
  6  1  1  0
  1  8  1  0
  2  9  1  0
  3 10  1  0
  4 11  1  0
  5 12  1  0
  7 13  1  0
  7 14  1  0
  7 15  1  0
M  END
$$$$

     RDKit          3D

 15 14  0  0  0  0  0  0  0  0999 V2000
    0.2467   -1.5041    1.0618 C   0  0  0  0  0  0  0  0  0  0  0  0
    0.5969   -0.6284   -0.0972 C   0  0  0  0  0  0  0  0  0  0  0  0
   -0.0550    0.5481   -0.2781 C   0  0  0  0  0  0  0  0  0  0  0  0
    0.7414    1.7213   -0.6273 C   0  0  0  0  0  0  0  0  0  0  0  0
    0.4564    2.7978    0.4120 C   0  0  0  0  0  0  0  0  0  0  0  0
   -0.7901   -1.3426    1.3306 H   0  0  0  0  0  0  0  0  0  0  0  0
    0.6039   -2.5150    0.8751 H   0  0  0  0  0  0  0  0  0  0  0  0
    0.9224   -1.1953    1.9034 H   0  0  0  0  0  0  0  0  0  0  0  0
    1.3813   -0.8526   -0.8031 H   0  0  0  0  0  0  0  0  0  0  0  0
   -0.8257    0.6857    0.4939 H   0  0  0  0  0  0  0  0  0  0  0  0
    0.5941    2.1900   -1.5798 H   0  0  0  0  0  0  0  0  0  0  0  0
    1.8259    1.4716   -0.6631 H   0  0  0  0  0  0  0  0  0  0  0  0
   -0.2049    3.5698    0.0044 H   0  0  0  0  0  0  0  0  0  0  0  0
    1.3853    3.1235    0.8834 H   0  0  0  0  0  0  0  0  0  0  0  0
   -0.1402    2.3330    1.2409 H   0  0  0  0  0  0  0  0  0  0  0  0
  1  2  1  0
  2  3  2  0
  3  4  1  0
  4  5  1  0
  1  6  1  0
  1  7  1  0
  1  8  1  0
  2  9  1  0
  3 10  1  0
  4 11  1  0
  4 12  1  0
  5 13  1  0
  5 14  1  0
  5 15  1  0
M  END
$$$$

     RDKit          3D

 30 33  0  0  0  0  0  0  0  0999 V2000
    1.2016    2.3626   -0.0846 C   0  0  0  0  0  0  0  0  0  0  0  0
    1.9992    1.4880   -0.7282 C   0  0  0  0  0  0  0  0  0  0  0  0
    2.4875    1.9525   -2.0439 C   0  0  0  0  0  0  0  0  0  0  0  0
    2.4610    3.7454   -1.8939 S   0  0  0  0  0  0  0  0  0  0  0  0
    1.3687    3.7770   -0.4782 C   0  0  0  0  0  0  0  0  0  0  0  0
    2.1574    0.2690   -0.1444 N   0  0  0  0  0  0  0  0  0  0  0  0
    1.1853   -0.2498    0.6514 C   0  0  0  0  0  0  0  0  0  0  0  0
    0.7013   -1.5324    0.8894 C   0  0  0  0  0  0  0  0  0  0  0  0
   -0.6972   -1.5145    0.8628 C   0  0  0  0  0  0  0  0  0  0  0  0
   -0.9489   -0.2249    1.1704 N   0  0  0  0  0  0  0  0  0  0  0  0
    0.1423    0.5299    1.0295 N   0  0  0  0  0  0  0  0  0  0  0  0
    0.2280    1.8520    0.7607 C   0  0  0  0  0  0  0  0  0  0  0  0
   -0.7745    2.5594    1.0744 O   0  0  0  0  0  0  0  0  0  0  0  0
   -1.5598   -2.3615   -0.0010 C   0  0  0  0  0  0  0  0  0  0  0  0
   -1.2005   -3.6826   -0.2455 C   0  0  0  0  0  0  0  0  0  0  0  0
   -1.2075   -4.2312   -1.5253 C   0  0  0  0  0  0  0  0  0  0  0  0
   -1.3587   -3.3887   -2.6224 C   0  0  0  0  0  0  0  0  0  0  0  0
   -2.0424   -2.2005   -2.3839 C   0  0  0  0  0  0  0  0  0  0  0  0
   -2.2807   -1.8200   -1.0653 C   0  0  0  0  0  0  0  0  0  0  0  0
    3.5215    1.5858   -2.1381 H   0  0  0  0  0  0  0  0  0  0  0  0
    1.7977    1.6137   -2.8236 H   0  0  0  0  0  0  0  0  0  0  0  0
    1.7047    4.4447    0.3098 H   0  0  0  0  0  0  0  0  0  0  0  0
    0.3656    4.0765   -0.8776 H   0  0  0  0  0  0  0  0  0  0  0  0
    2.6918   -0.4426   -0.7151 H   0  0  0  0  0  0  0  0  0  0  0  0
    1.2948   -2.4307    0.7675 H   0  0  0  0  0  0  0  0  0  0  0  0
   -0.7753   -4.2159    0.5984 H   0  0  0  0  0  0  0  0  0  0  0  0
   -0.7081   -5.1903   -1.6677 H   0  0  0  0  0  0  0  0  0  0  0  0
   -0.7086   -3.4646   -3.4964 H   0  0  0  0  0  0  0  0  0  0  0  0
   -2.2425   -1.5155   -3.2140 H   0  0  0  0  0  0  0  0  0  0  0  0
   -2.6890   -0.8251   -0.8737 H   0  0  0  0  0  0  0  0  0  0  0  0
  1  2  2  0
  2  3  1  0
  3  4  1  0
  4  5  1  0
  2  6  1  0
  6  7  1  0
  7  8  2  0
  8  9  1  0
  9 10  2  0
 10 11  1  0
 11 12  1  0
 12 13  2  0
  9 14  1  0
 14 15  2  0
 15 16  1  0
 16 17  2  0
 17 18  1  0
 18 19  2  0
 12  1  1  0
  5  1  1  0
 11  7  1  0
 19 14  1  0
  3 20  1  0
  3 21  1  0
  5 22  1  0
  5 23  1  0
  6 24  1  0
  8 25  1  0
 15 26  1  0
 16 27  1  0
 17 28  1  0
 18 29  1  0
 19 30  1  0
M  END
$$$$

     RDKit          3D

 18 18  0  0  0  0  0  0  0  0999 V2000
   -0.6248   -1.2934    0.4831 C   0  0  0  0  0  0  0  0  0  0  0  0
    0.4410   -1.3636   -0.5958 C   0  0  0  0  0  0  0  0  0  0  0  0
    0.5817    0.0030   -1.2085 C   0  0  0  0  0  0  0  0  0  0  0  0
    1.1923    1.0291   -0.3215 C   0  0  0  0  0  0  0  0  0  0  0  0
    0.1836    1.2953    0.8010 C   0  0  0  0  0  0  0  0  0  0  0  0
    0.2104   -0.2319    1.6599 S   0  0  0  0  0  0  0  0  0  0  0  0
    1.6537   -0.7257    1.7612 O   0  0  0  0  0  0  0  0  0  0  0  0
   -0.3688   -0.2628    3.0058 O   0  0  0  0  0  0  0  0  0  0  0  0
   -0.9236   -2.2356    0.9130 H   0  0  0  0  0  0  0  0  0  0  0  0
   -1.4880   -0.7913   -0.0014 H   0  0  0  0  0  0  0  0  0  0  0  0
    1.3969   -1.6525   -0.0782 H   0  0  0  0  0  0  0  0  0  0  0  0
    0.2164   -2.1623   -1.3353 H   0  0  0  0  0  0  0  0  0  0  0  0
   -0.4313    0.3328   -1.4852 H   0  0  0  0  0  0  0  0  0  0  0  0
    1.2409   -0.1359   -2.0891 H   0  0  0  0  0  0  0  0  0  0  0  0
    1.4067    1.9612   -0.8776 H   0  0  0  0  0  0  0  0  0  0  0  0
    2.1381    0.7082    0.1842 H   0  0  0  0  0  0  0  0  0  0  0  0
   -0.7748    1.5210    0.2699 H   0  0  0  0  0  0  0  0  0  0  0  0
    0.4341    2.1815    1.3861 H   0  0  0  0  0  0  0  0  0  0  0  0
  1  2  1  0
  2  3  1  0
  3  4  1  0
  4  5  1  0
  5  6  1  0
  6  7  2  0
  6  8  2  0
  6  1  1  0
  1  9  1  0
  1 10  1  0
  2 11  1  0
  2 12  1  0
  3 13  1  0
  3 14  1  0
  4 15  1  0
  4 16  1  0
  5 17  1  0
  5 18  1  0
M  END
$$$$

     RDKit          3D

 12 12  0  0  0  0  0  0  0  0999 V2000
    0.1494    0.3282   -1.0324 C   0  0  0  0  0  0  0  0  0  0  0  0
    0.9463   -0.5872   -0.4107 C   0  0  0  0  0  0  0  0  0  0  0  0
    1.5064   -0.2764    0.8168 C   0  0  0  0  0  0  0  0  0  0  0  0
    1.5803    1.0749    1.1205 C   0  0  0  0  0  0  0  0  0  0  0  0
    0.6675    1.9745    0.5836 C   0  0  0  0  0  0  0  0  0  0  0  0
   -0.1169    1.5804   -0.4833 C   0  0  0  0  0  0  0  0  0  0  0  0
   -0.1939    0.1128   -2.0182 H   0  0  0  0  0  0  0  0  0  0  0  0
    1.1756   -1.5721   -0.8228 H   0  0  0  0  0  0  0  0  0  0  0  0
    1.6493   -1.0316    1.5719 H   0  0  0  0  0  0  0  0  0  0  0  0
    2.2930    1.3411    1.8948 H   0  0  0  0  0  0  0  0  0  0  0  0
    0.4586    2.8660    1.1222 H   0  0  0  0  0  0  0  0  0  0  0  0
   -1.1686    1.8771   -0.5072 H   0  0  0  0  0  0  0  0  0  0  0  0
  1  2  2  0
  2  3  1  0
  3  4  2  0
  4  5  1  0
  5  6  2  0
  6  1  1  0
  1  7  1  0
  2  8  1  0
  3  9  1  0
  4 10  1  0
  5 11  1  0
  6 12  1  0
M  END
$$$$

     RDKit          3D

 15 15  0  0  0  0  0  0  0  0999 V2000
    0.4990    0.3000    1.3789 C   0  0  0  0  0  0  0  0  0  0  0  0
    1.0277   -0.4805    0.2260 C   0  0  0  0  0  0  0  0  0  0  0  0
    0.5836    0.3228   -0.9397 C   0  0  0  0  0  0  0  0  0  0  0  0
    0.0466    1.6546   -0.4372 C   0  0  0  0  0  0  0  0  0  0  0  0
    0.2986    1.7391    1.0320 C   0  0  0  0  0  0  0  0  0  0  0  0
    1.0524    0.1766    2.3024 H   0  0  0  0  0  0  0  0  0  0  0  0
   -0.5639   -0.0663    1.4711 H   0  0  0  0  0  0  0  0  0  0  0  0
    2.0996   -0.7189    0.2875 H   0  0  0  0  0  0  0  0  0  0  0  0
    0.5663   -1.5078    0.2800 H   0  0  0  0  0  0  0  0  0  0  0  0
    1.4089    0.5154   -1.6112 H   0  0  0  0  0  0  0  0  0  0  0  0
   -0.2538   -0.2445   -1.3882 H   0  0  0  0  0  0  0  0  0  0  0  0
    0.5575    2.5202   -0.8610 H   0  0  0  0  0  0  0  0  0  0  0  0
   -1.0612    1.6550   -0.5525 H   0  0  0  0  0  0  0  0  0  0  0  0
    1.0764    2.4281    1.3616 H   0  0  0  0  0  0  0  0  0  0  0  0
   -0.5994    2.1088    1.6071 H   0  0  0  0  0  0  0  0  0  0  0  0
  1  2  1  0
  2  3  1  0
  3  4  1  0
  4  5  1  0
  5  1  1  0
  1  6  1  0
  1  7  1  0
  2  8  1  0
  2  9  1  0
  3 10  1  0
  3 11  1  0
  4 12  1  0
  4 13  1  0
  5 14  1  0
  5 15  1  0
M  END
$$$$

     RDKit          3D

 18 18  0  0  0  0  0  0  0  0999 V2000
    1.0935   -1.2001    0.2087 C   0  0  0  0  0  0  0  0  0  0  0  0
    1.0582   -0.5426   -1.1439 C   0  0  0  0  0  0  0  0  0  0  0  0
    0.5076    0.8414   -0.8850 C   0  0  0  0  0  0  0  0  0  0  0  0
   -0.0335    1.1612    0.4142 C   0  0  0  0  0  0  0  0  0  0  0  0
   -0.3841    0.1276    1.3897 C   0  0  0  0  0  0  0  0  0  0  0  0
   -0.3287   -1.2596    0.7495 C   0  0  0  0  0  0  0  0  0  0  0  0
    1.6913   -0.4307    0.7967 H   0  0  0  0  0  0  0  0  0  0  0  0
    1.6317   -2.1194    0.3379 H   0  0  0  0  0  0  0  0  0  0  0  0
    0.5097   -1.0807   -1.9204 H   0  0  0  0  0  0  0  0  0  0  0  0
    2.1216   -0.5850   -1.4960 H   0  0  0  0  0  0  0  0  0  0  0  0
    1.4068    1.4875   -1.0659 H   0  0  0  0  0  0  0  0  0  0  0  0
   -0.1088    1.1362   -1.7795 H   0  0  0  0  0  0  0  0  0  0  0  0
   -0.9764    1.7666    0.2749 H   0  0  0  0  0  0  0  0  0  0  0  0
    0.5922    1.9201    0.9553 H   0  0  0  0  0  0  0  0  0  0  0  0
   -1.2177    0.2737    2.0488 H   0  0  0  0  0  0  0  0  0  0  0  0
    0.5109    0.0512    2.0734 H   0  0  0  0  0  0  0  0  0  0  0  0
   -1.1072   -1.3289    0.0161 H   0  0  0  0  0  0  0  0  0  0  0  0
   -0.4825   -2.0416    1.4971 H   0  0  0  0  0  0  0  0  0  0  0  0
  1  2  1  0
  2  3  1  0
  3  4  1  0
  4  5  1  0
  5  6  1  0
  6  1  1  0
  1  7  1  0
  1  8  1  0
  2  9  1  0
  2 10  1  0
  3 11  1  0
  3 12  1  0
  4 13  1  0
  4 14  1  0
  5 15  1  0
  5 16  1  0
  6 17  1  0
  6 18  1  0
M  END
$$$$

     RDKit          3D

 15 15  0  0  0  0  0  0  0  0999 V2000
   -0.4966   -0.3300    0.1722 C   0  0  0  0  0  0  0  0  0  0  0  0
    0.7395   -0.5998    0.7737 C   0  0  0  0  0  0  0  0  0  0  0  0
    0.4658    0.8693    0.2998 C   0  0  0  0  0  0  0  0  0  0  0  0
    1.3593    1.1667   -0.8590 C   0  0  0  0  0  0  0  0  0  0  0  0
   -0.0681    1.8605    1.2614 C   0  0  0  0  0  0  0  0  0  0  0  0
   -0.7056   -0.5047   -0.9001 H   0  0  0  0  0  0  0  0  0  0  0  0
   -1.3977   -0.4047    0.7914 H   0  0  0  0  0  0  0  0  0  0  0  0
    1.3483   -0.3178    1.6172 H   0  0  0  0  0  0  0  0  0  0  0  0
    1.3459   -1.2702    0.1314 H   0  0  0  0  0  0  0  0  0  0  0  0
    1.5571    2.2096   -1.1326 H   0  0  0  0  0  0  0  0  0  0  0  0
    2.3050    0.6738   -0.7374 H   0  0  0  0  0  0  0  0  0  0  0  0
    0.7972    0.7265   -1.7032 H   0  0  0  0  0  0  0  0  0  0  0  0
   -0.9322    1.4896    1.8320 H   0  0  0  0  0  0  0  0  0  0  0  0
    0.7440    2.0880    1.9875 H   0  0  0  0  0  0  0  0  0  0  0  0
   -0.3236    2.7459    0.6224 H   0  0  0  0  0  0  0  0  0  0  0  0
  1  2  1  0
  2  3  1  0
  3  4  1  0
  3  5  1  0
  3  1  1  0
  1  6  1  0
  1  7  1  0
  2  8  1  0
  2  9  1  0
  4 10  1  0
  4 11  1  0
  4 12  1  0
  5 13  1  0
  5 14  1  0
  5 15  1  0
M  END
$$$$

     RDKit          3D

 16 17  0  0  0  0  0  0  0  0999 V2000
    0.5874    0.1008    0.2758 C   0  0  0  0  0  0  0  0  0  0  0  0
    1.9647   -0.1192   -0.0400 C   0  0  0  0  0  0  0  0  0  0  0  0
   -0.0410    0.3945   -1.0167 C   0  0  0  0  0  0  0  0  0  0  0  0
   -0.4501    1.1441    0.0747 C   0  0  0  0  0  0  0  0  0  0  0  0
    0.0506    1.5304    1.4315 C   0  0  0  0  0  0  0  0  0  0  0  0
   -0.0502    0.0296    1.5860 C   0  0  0  0  0  0  0  0  0  0  0  0
    2.7493   -0.0598    0.7373 H   0  0  0  0  0  0  0  0  0  0  0  0
    2.3503    0.6415   -0.7901 H   0  0  0  0  0  0  0  0  0  0  0  0
    1.9885   -1.1306   -0.5405 H   0  0  0  0  0  0  0  0  0  0  0  0
   -0.4497   -0.5594   -1.4395 H   0  0  0  0  0  0  0  0  0  0  0  0
    0.5182    0.9573   -1.8154 H   0  0  0  0  0  0  0  0  0  0  0  0
   -1.5303    0.8570    0.2504 H   0  0  0  0  0  0  0  0  0  0  0  0
   -0.6425    2.1560    2.0057 H   0  0  0  0  0  0  0  0  0  0  0  0
    1.1200    1.8542    1.5113 H   0  0  0  0  0  0  0  0  0  0  0  0
    0.4668   -0.4478    2.4057 H   0  0  0  0  0  0  0  0  0  0  0  0
   -1.1231   -0.3068    1.5060 H   0  0  0  0  0  0  0  0  0  0  0  0
  1  2  1  0
  1  3  1  0
  3  4  1  0
  4  5  1  0
  5  6  1  0
  4  1  1  0
  6  1  1  0
  2  7  1  0
  2  8  1  0
  2  9  1  0
  3 10  1  0
  3 11  1  0
  4 12  1  0
  5 13  1  0
  5 14  1  0
  6 15  1  0
  6 16  1  0
M  END
$$$$
