
     RDKit          3D

 24 25  0  0  0  0  0  0  0  0999 V2000
   -0.8542   -1.4204    0.7775 C   0  0  0  0  0  0  0  0  0  0  0  0
   -0.3794   -0.7747   -0.4954 C   0  0  0  0  0  0  0  0  0  0  0  0
    0.6891    0.0703   -0.3871 C   0  0  0  0  0  0  0  0  0  0  0  0
    1.5933   -0.0124    0.6067 C   0  0  0  0  0  0  0  0  0  0  0  0
    1.2595   -0.5389    1.9008 C   0  0  0  0  0  0  0  0  0  0  0  0
    2.8967    0.4299    0.3835 C   0  0  0  0  0  0  0  0  0  0  0  0
    3.1782    1.2609   -0.6848 C   0  0  0  0  0  0  0  0  0  0  0  0
    2.0965    1.7506   -1.3815 C   0  0  0  0  0  0  0  0  0  0  0  0
    0.9377    0.9897   -1.3998 C   0  0  0  0  0  0  0  0  0  0  0  0
   -0.0263    1.2393   -2.3777 C   0  0  0  0  0  0  0  0  0  0  0  0
   -1.0343    0.3093   -2.5256 C   0  0  0  0  0  0  0  0  0  0  0  0
   -1.1581   -0.6967   -1.5966 C   0  0  0  0  0  0  0  0  0  0  0  0
   -1.2913   -0.6133    1.3010 H   0  0  0  0  0  0  0  0  0  0  0  0
   -0.2116   -2.1877    0.9857 H   0  0  0  0  0  0  0  0  0  0  0  0
   -1.8202   -1.9815    0.5881 H   0  0  0  0  0  0  0  0  0  0  0  0
    0.4935   -0.1733    2.5285 H   0  0  0  0  0  0  0  0  0  0  0  0
    1.6358   -1.5846    2.0461 H   0  0  0  0  0  0  0  0  0  0  0  0
    2.0792   -0.1920    2.6035 H   0  0  0  0  0  0  0  0  0  0  0  0
    3.6831   -0.0392    0.9805 H   0  0  0  0  0  0  0  0  0  0  0  0
    4.1972    1.5722   -0.8105 H   0  0  0  0  0  0  0  0  0  0  0  0
    2.2552    2.5909   -2.0492 H   0  0  0  0  0  0  0  0  0  0  0  0
    0.2250    1.8654   -3.2326 H   0  0  0  0  0  0  0  0  0  0  0  0
   -1.5578    0.2288   -3.4782 H   0  0  0  0  0  0  0  0  0  0  0  0
   -2.0016   -1.3747   -1.7235 H   0  0  0  0  0  0  0  0  0  0  0  0
  1  2  1  0
  2  3  2  0
  3  4  1  0
  4  5  1  0
  4  6  2  0
  6  7  1  0
  7  8  2  0
  3  9  1  0
  9 10  2  0
 10 11  1  0
 11 12  2  0
 12  2  1  0
  9  8  1  0
  1 13  1  0
  1 14  1  0
  1 15  1  0
  5 16  1  0
  5 17  1  0
  5 18  1  0
  6 19  1  0
  7 20  1  0
  8 21  1  0
 10 22  1  0
 11 23  1  0
 12 24  1  0
M  END
$$$$

     RDKit          3D

 15 15  0  0  0  0  0  0  0  0999 V2000
    0.7056   -0.4486    0.7078 C   0  0  0  0  0  0  0  0  0  0  0  0
    1.8701   -0.3957    0.0192 C   0  0  0  0  0  0  0  0  0  0  0  0
    2.1375    0.6843   -0.8156 C   0  0  0  0  0  0  0  0  0  0  0  0
    1.3409    1.8138   -0.7561 C   0  0  0  0  0  0  0  0  0  0  0  0
    0.1432    1.7707   -0.1096 C   0  0  0  0  0  0  0  0  0  0  0  0
   -0.1557    0.6146    0.6023 C   0  0  0  0  0  0  0  0  0  0  0  0
   -1.5164    0.5171    1.1722 C   0  0  0  0  0  0  0  0  0  0  0  0
    0.7530   -0.8880    1.7036 H   0  0  0  0  0  0  0  0  0  0  0  0
    2.7655   -0.8875    0.4034 H   0  0  0  0  0  0  0  0  0  0  0  0
    3.0187    0.7016   -1.4156 H   0  0  0  0  0  0  0  0  0  0  0  0
    1.5281    2.6680   -1.3912 H   0  0  0  0  0  0  0  0  0  0  0  0
   -0.3006    2.7369    0.1291 H   0  0  0  0  0  0  0  0  0  0  0  0
   -1.5768   -0.3284    1.8488 H   0  0  0  0  0  0  0  0  0  0  0  0
   -2.2657    0.3606    0.3676 H   0  0  0  0  0  0  0  0  0  0  0  0
   -1.7092    1.4831    1.6910 H   0  0  0  0  0  0  0  0  0  0  0  0
  1  2  2  0
  2  3  1  0
  3  4  2  0
  4  5  1  0
  5  6  2  0
  6  7  1  0
  6  1  1  0
  1  8  1  0
  2  9  1  0
  3 10  1  0
  4 11  1  0
  5 12  1  0
  7 13  1  0
  7 14  1  0
  7 15  1  0
M  END
$$$$
     RDKit          3D

 15 14  0  0  0  0  0  0  0  0999 V2000
   -0.6674   -1.4421   -0.2259 C   0  0  0  0  0  0  0  0  0  0  0  0
    0.4715   -0.4781   -0.3874 C   0  0  0  0  0  0  0  0  0  0  0  0
    1.4964   -0.4452    0.4746 C   0  0  0  0  0  0  0  0  0  0  0  0
    2.8975   -0.5838    0.0702 C   0  0  0  0  0  0  0  0  0  0  0  0
    3.7119    0.6750    0.0897 C   0  0  0  0  0  0  0  0  0  0  0  0
   -0.5746   -2.1222   -1.0920 H   0  0  0  0  0  0  0  0  0  0  0  0
   -0.5373   -2.0629    0.6802 H   0  0  0  0  0  0  0  0  0  0  0  0
   -1.6360   -0.9478   -0.1287 H   0  0  0  0  0  0  0  0  0  0  0  0
    0.6406    0.0652   -1.3004 H   0  0  0  0  0  0  0  0  0  0  0  0
    1.1764   -0.5383    1.5198 H   0  0  0  0  0  0  0  0  0  0  0  0
    3.0896   -1.0902   -0.8734 H   0  0  0  0  0  0  0  0  0  0  0  0
    3.3497   -1.2397    0.8600 H   0  0  0  0  0  0  0  0  0  0  0  0
    3.5758    1.2511    1.0187 H   0  0  0  0  0  0  0  0  0  0  0  0
    3.6004    1.2954   -0.8300 H   0  0  0  0  0  0  0  0  0  0  0  0
    4.7657    0.2900    0.0338 H   0  0  0  0  0  0  0  0  0  0  0  0
  1  2  1  0
  2  3  2  0
  3  4  1  0
  4  5  1  0
  1  6  1  0
  1  7  1  0
  1  8  1  0
  2  9  1  0
  3 10  1  0
  4 11  1  0
  4 12  1  0
  5 13  1  0
  5 14  1  0
  5 15  1  0
M  END
$$$$

     RDKit          3D

 30 33  0  0  0  0  0  0  0  0999 V2000
    1.2027    2.3832   -0.0385 C   0  0  0  0  0  0  0  0  0  0  0  0
    2.0221    1.5412   -0.6848 C   0  0  0  0  0  0  0  0  0  0  0  0
    2.4694    1.9998   -2.0150 C   0  0  0  0  0  0  0  0  0  0  0  0
    2.4107    3.7968   -1.8665 S   0  0  0  0  0  0  0  0  0  0  0  0
    1.3852    3.8135   -0.3588 C   0  0  0  0  0  0  0  0  0  0  0  0
    2.1420    0.2880   -0.1615 N   0  0  0  0  0  0  0  0  0  0  0  0
    1.1569   -0.2404    0.6129 C   0  0  0  0  0  0  0  0  0  0  0  0
    0.6766   -1.5209    0.8464 C   0  0  0  0  0  0  0  0  0  0  0  0
   -0.7183   -1.5166    0.7958 C   0  0  0  0  0  0  0  0  0  0  0  0
   -0.9815   -0.2187    1.0856 N   0  0  0  0  0  0  0  0  0  0  0  0
    0.1087    0.5312    0.9980 N   0  0  0  0  0  0  0  0  0  0  0  0
    0.2648    1.8613    0.8278 C   0  0  0  0  0  0  0  0  0  0  0  0
   -0.7105    2.5666    1.2274 O   0  0  0  0  0  0  0  0  0  0  0  0
   -1.5663   -2.3762   -0.0614 C   0  0  0  0  0  0  0  0  0  0  0  0
   -1.2136   -3.7073   -0.2667 C   0  0  0  0  0  0  0  0  0  0  0  0
   -1.2550   -4.2827   -1.5369 C   0  0  0  0  0  0  0  0  0  0  0  0
   -1.3754   -3.4670   -2.6584 C   0  0  0  0  0  0  0  0  0  0  0  0
   -2.0535   -2.2715   -2.4422 C   0  0  0  0  0  0  0  0  0  0  0  0
   -2.2855   -1.8496   -1.1353 C   0  0  0  0  0  0  0  0  0  0  0  0
    3.5299    1.6986   -2.1129 H   0  0  0  0  0  0  0  0  0  0  0  0
    1.8394    1.6503   -2.8297 H   0  0  0  0  0  0  0  0  0  0  0  0
    1.7920    4.4242    0.4237 H   0  0  0  0  0  0  0  0  0  0  0  0
    0.3782    4.1792   -0.6650 H   0  0  0  0  0  0  0  0  0  0  0  0
    2.7165   -0.4122   -0.7061 H   0  0  0  0  0  0  0  0  0  0  0  0
    1.2801   -2.4188    0.7165 H   0  0  0  0  0  0  0  0  0  0  0  0
   -0.8157   -4.2350    0.5831 H   0  0  0  0  0  0  0  0  0  0  0  0
   -0.7054   -5.2168   -1.6645 H   0  0  0  0  0  0  0  0  0  0  0  0
   -0.7110   -3.5794   -3.5157 H   0  0  0  0  0  0  0  0  0  0  0  0
   -2.2183   -1.6187   -3.3000 H   0  0  0  0  0  0  0  0  0  0  0  0
   -2.6502   -0.8363   -1.0063 H   0  0  0  0  0  0  0  0  0  0  0  0
  1  2  2  0
  2  3  1  0
  3  4  1  0
  4  5  1  0
  2  6  1  0
  6  7  1  0
  7  8  2  0
  8  9  1  0
  9 10  2  0
 10 11  1  0
 11 12  1  0
 12 13  2  0
  9 14  1  0
 14 15  2  0
 15 16  1  0
 16 17  2  0
 17 18  1  0
 18 19  2  0
  1 12  1  0
  5  1  1  0
 11  7  1  0
 19 14  1  0
  3 20  1  0
  3 21  1  0
  5 22  1  0
  5 23  1  0
  6 24  1  0
  8 25  1  0
 15 26  1  0
 16 27  1  0
 17 28  1  0
 18 29  1  0
 19 30  1  0
M  END
$$$$

     RDKit          3D

 18 18  0  0  0  0  0  0  0  0999 V2000
   -0.8858   -0.9371   -0.1228 C   0  0  0  0  0  0  0  0  0  0  0  0
    0.4371   -1.5278   -0.4366 C   0  0  0  0  0  0  0  0  0  0  0  0
    1.4618   -0.4169   -0.6391 C   0  0  0  0  0  0  0  0  0  0  0  0
    1.6407    0.1842    0.7303 C   0  0  0  0  0  0  0  0  0  0  0  0
    0.7167    1.3210    0.8738 C   0  0  0  0  0  0  0  0  0  0  0  0
   -0.8778    0.7734    0.3118 S   0  0  0  0  0  0  0  0  0  0  0  0
   -1.3000    1.5625   -0.9072 O   0  0  0  0  0  0  0  0  0  0  0  0
   -1.9395    1.0359    1.3600 O   0  0  0  0  0  0  0  0  0  0  0  0
   -1.6110   -1.1468   -0.9480 H   0  0  0  0  0  0  0  0  0  0  0  0
   -1.2929   -1.4668    0.7712 H   0  0  0  0  0  0  0  0  0  0  0  0
    0.8153   -2.1162    0.3827 H   0  0  0  0  0  0  0  0  0  0  0  0
    0.3860   -2.1273   -1.3314 H   0  0  0  0  0  0  0  0  0  0  0  0
    0.9525    0.2768   -1.3526 H   0  0  0  0  0  0  0  0  0  0  0  0
    2.4366   -0.7622   -0.9691 H   0  0  0  0  0  0  0  0  0  0  0  0
    1.2690   -0.5563    1.4853 H   0  0  0  0  0  0  0  0  0  0  0  0
    2.6861    0.3335    1.0259 H   0  0  0  0  0  0  0  0  0  0  0  0
    0.5686    1.5674    1.9531 H   0  0  0  0  0  0  0  0  0  0  0  0
    1.0212    2.1798    0.2845 H   0  0  0  0  0  0  0  0  0  0  0  0
  1  2  1  0
  2  3  1  0
  3  4  1  0
  4  5  1  0
  5  6  1  0
  6  7  2  0
  6  8  2  0
  6  1  1  0
  1  9  1  0
  1 10  1  0
  2 11  1  0
  2 12  1  0
  3 13  1  0
  3 14  1  0
  4 15  1  0
  4 16  1  0
  5 17  1  0
  5 18  1  0
M  END
$$$$

     RDKit          3D

 12 12  0  0  0  0  0  0  0  0999 V2000
    0.1524    0.3955   -1.0488 C   0  0  0  0  0  0  0  0  0  0  0  0
    0.9112   -0.6040   -0.4633 C   0  0  0  0  0  0  0  0  0  0  0  0
    1.4784   -0.3272    0.7678 C   0  0  0  0  0  0  0  0  0  0  0  0
    1.5699    0.9992    1.1533 C   0  0  0  0  0  0  0  0  0  0  0  0
    0.7104    1.9641    0.6158 C   0  0  0  0  0  0  0  0  0  0  0  0
   -0.0884    1.5946   -0.4413 C   0  0  0  0  0  0  0  0  0  0  0  0
   -0.2411    0.2144   -2.0300 H   0  0  0  0  0  0  0  0  0  0  0  0
    1.0878   -1.5630   -0.8877 H   0  0  0  0  0  0  0  0  0  0  0  0
    1.6344   -1.0929    1.5117 H   0  0  0  0  0  0  0  0  0  0  0  0
    2.2943    1.2727    1.9124 H   0  0  0  0  0  0  0  0  0  0  0  0
    0.5346    2.8346    1.2367 H   0  0  0  0  0  0  0  0  0  0  0  0
   -1.0970    1.9996   -0.4913 H   0  0  0  0  0  0  0  0  0  0  0  0
  1  2  2  0
  2  3  1  0
  3  4  2  0
  4  5  1  0
  5  6  2  0
  6  1  1  0
  1  7  1  0
  2  8  1  0
  3  9  1  0
  4 10  1  0
  5 11  1  0
  6 12  1  0
M  END
$$$$

     RDKit          3D

 15 15  0  0  0  0  0  0  0  0999 V2000
    0.8095    0.4481    1.4528 C   0  0  0  0  0  0  0  0  0  0  0  0
    1.0255   -0.4654    0.3001 C   0  0  0  0  0  0  0  0  0  0  0  0
    0.3955    0.2199   -0.8775 C   0  0  0  0  0  0  0  0  0  0  0  0
   -0.0462    1.5995   -0.4630 C   0  0  0  0  0  0  0  0  0  0  0  0
    0.1892    1.7248    1.0213 C   0  0  0  0  0  0  0  0  0  0  0  0
    1.6964    0.5438    2.1063 H   0  0  0  0  0  0  0  0  0  0  0  0
    0.0524   -0.0758    2.1010 H   0  0  0  0  0  0  0  0  0  0  0  0
    0.5442   -1.4728    0.4246 H   0  0  0  0  0  0  0  0  0  0  0  0
    2.0770   -0.7192    0.0693 H   0  0  0  0  0  0  0  0  0  0  0  0
    1.1409    0.3529   -1.6739 H   0  0  0  0  0  0  0  0  0  0  0  0
   -0.4520   -0.3958   -1.2604 H   0  0  0  0  0  0  0  0  0  0  0  0
    0.5082    2.4071   -1.0086 H   0  0  0  0  0  0  0  0  0  0  0  0
   -1.1308    1.7015   -0.7313 H   0  0  0  0  0  0  0  0  0  0  0  0
    0.7479    2.6406    1.2159 H   0  0  0  0  0  0  0  0  0  0  0  0
   -0.8194    1.8935    1.4801 H   0  0  0  0  0  0  0  0  0  0  0  0
  1  2  1  0
  2  3  1  0
  3  4  1  0
  4  5  1  0
  5  1  1  0
  1  6  1  0
  1  7  1  0
  2  8  1  0
  2  9  1  0
  3 10  1  0
  3 11  1  0
  4 12  1  0
  4 13  1  0
  5 14  1  0
  5 15  1  0
M  END
$$$$

    RDKit          3D

18 18  0  0  0  0  0  0  0  0999 V2000
  -1.9985    0.0911    2.3307 C   0  0  0  0  0  0  0  0  0  0  0  0
  -1.5239   -0.9063    1.3045 C   0  0  0  0  0  0  0  0  0  0  0  0
  -0.9232   -0.2690    0.1063 C   0  0  0  0  0  0  0  0  0  0  0  0
  -1.9872    0.5688   -0.5143 C   0  0  0  0  0  0  0  0  0  0  0  0
  -3.0572    1.0891    0.4258 C   0  0  0  0  0  0  0  0  0  0  0  0
  -2.3589    1.4202    1.7316 C   0  0  0  0  0  0  0  0  0  0  0  0
  -1.1554    0.2787    3.0102 H   0  0  0  0  0  0  0  0  0  0  0  0
  -2.8695   -0.3130    2.9011 H   0  0  0  0  0  0  0  0  0  0  0  0
  -2.4102   -1.4667    0.9576 H   0  0  0  0  0  0  0  0  0  0  0  0
  -0.7483   -1.5752    1.7269 H   0  0  0  0  0  0  0  0  0  0  0  0
  -0.5844   -1.0656   -0.5741 H   0  0  0  0  0  0  0  0  0  0  0  0
  -0.0119    0.2876    0.4129 H   0  0  0  0  0  0  0  0  0  0  0  0
  -1.4545    1.4979   -0.7303 H   0  0  0  0  0  0  0  0  0  0  0  0
  -2.4714    0.1536   -1.3985 H   0  0  0  0  0  0  0  0  0  0  0  0
  -3.8064    0.2989    0.5059 H   0  0  0  0  0  0  0  0  0  0  0  0
  -3.4816    2.0335    0.0483 H   0  0  0  0  0  0  0  0  0  0  0  0
  -3.1553    1.9256    2.3339 H   0  0  0  0  0  0  0  0  0  0  0  0
  -1.5151    2.0800    1.5603 H   0  0  0  0  0  0  0  0  0  0  0  0
 1  2  1  0
 2  3  1  0
 3  4  1  0
 4  5  1  0
 5  6  1  0
 6  1  1  0
 1  7  1  0
 1  8  1  0
 2  9  1  0
 2 10  1  0
 3 11  1  0
 3 12  1  0
 4 13  1  0
 4 14  1  0
 5 15  1  0
 5 16  1  0
 6 17  1  0
 6 18  1  0
M  END
$$$$

     RDKit          3D

 15 15  0  0  0  0  0  0  0  0999 V2000
   -0.4031   -0.3017    0.2316 C   0  0  0  0  0  0  0  0  0  0  0  0
    0.8879   -0.5935    0.7293 C   0  0  0  0  0  0  0  0  0  0  0  0
    0.5573    0.7725    0.3294 C   0  0  0  0  0  0  0  0  0  0  0  0
    1.3561    1.2038   -0.8916 C   0  0  0  0  0  0  0  0  0  0  0  0
   -0.0353    1.8125    1.2333 C   0  0  0  0  0  0  0  0  0  0  0  0
   -0.7345   -0.3332   -0.8125 H   0  0  0  0  0  0  0  0  0  0  0  0
   -1.2868   -0.4177    0.8743 H   0  0  0  0  0  0  0  0  0  0  0  0
    1.5950   -0.4134    1.4828 H   0  0  0  0  0  0  0  0  0  0  0  0
    1.0948   -1.5186    0.2441 H   0  0  0  0  0  0  0  0  0  0  0  0
    1.8472    0.3376   -1.3957 H   0  0  0  0  0  0  0  0  0  0  0  0
    2.1178    1.9600   -0.6424 H   0  0  0  0  0  0  0  0  0  0  0  0
    0.6131    1.5656   -1.6145 H   0  0  0  0  0  0  0  0  0  0  0  0
   -1.0174    1.4899    1.6880 H   0  0  0  0  0  0  0  0  0  0  0  0
    0.5316    2.1684    2.0885 H   0  0  0  0  0  0  0  0  0  0  0  0
   -0.3852    2.6705    0.6121 H   0  0  0  0  0  0  0  0  0  0  0  0
  1  2  1  0
  2  3  1  0
  3  4  1  0
  3  5  1  0
  3  1  1  0
  1  6  1  0
  1  7  1  0
  2  8  1  0
  2  9  1  0
  4 10  1  0
  4 11  1  0
  4 12  1  0
  5 13  1  0
  5 14  1  0
  5 15  1  0
M  END
$$$$

     RDKit          3D

 16 17  0  0  0  0  0  0  0  0999 V2000
    0.6433    0.2627    0.2858 C   0  0  0  0  0  0  0  0  0  0  0  0
    1.9137   -0.1659   -0.0565 C   0  0  0  0  0  0  0  0  0  0  0  0
   -0.0504    0.5024   -1.0111 C   0  0  0  0  0  0  0  0  0  0  0  0
   -0.4296    1.2178    0.1080 C   0  0  0  0  0  0  0  0  0  0  0  0
   -0.0235    1.5655    1.4861 C   0  0  0  0  0  0  0  0  0  0  0  0
   -0.0112    0.0439    1.5709 C   0  0  0  0  0  0  0  0  0  0  0  0
    2.7653    0.1552    0.5520 H   0  0  0  0  0  0  0  0  0  0  0  0
    2.2880   -0.0321   -1.1106 H   0  0  0  0  0  0  0  0  0  0  0  0
    1.8736   -1.2877    0.0295 H   0  0  0  0  0  0  0  0  0  0  0  0
   -0.3209   -0.5035   -1.4102 H   0  0  0  0  0  0  0  0  0  0  0  0
    0.5245    1.0479   -1.8068 H   0  0  0  0  0  0  0  0  0  0  0  0
   -1.5132    0.9059    0.2347 H   0  0  0  0  0  0  0  0  0  0  0  0
   -0.7213    2.0640    2.1308 H   0  0  0  0  0  0  0  0  0  0  0  0
    0.9815    2.0224    1.4581 H   0  0  0  0  0  0  0  0  0  0  0  0
    0.5904   -0.3793    2.3621 H   0  0  0  0  0  0  0  0  0  0  0  0
   -1.0012   -0.3775    1.3190 H   0  0  0  0  0  0  0  0  0  0  0  0
  1  2  1  0
  1  3  1  0
  3  4  1  0
  4  5  1  0
  5  6  1  0
  4  1  1  0
  6  1  1  0
  2  7  1  0
  2  8  1  0
  2  9  1  0
  3 10  1  0
  3 11  1  0
  4 12  1  0
  5 13  1  0
  5 14  1  0
  6 15  1  0
  6 16  1  0
M  END
$$$$
