
     RDKit          3D

 24 25  0  0  0  0  0  0  0  0999 V2000
   -0.8098   -1.4111    0.7206 C   0  0  0  0  0  0  0  0  0  0  0  0
   -0.3419   -0.7255   -0.4791 C   0  0  0  0  0  0  0  0  0  0  0  0
    0.7367    0.0993   -0.4222 C   0  0  0  0  0  0  0  0  0  0  0  0
    1.5777    0.0654    0.6681 C   0  0  0  0  0  0  0  0  0  0  0  0
    1.2691   -0.5589    1.9161 C   0  0  0  0  0  0  0  0  0  0  0  0
    2.8985    0.3955    0.3255 C   0  0  0  0  0  0  0  0  0  0  0  0
    3.1835    1.2451   -0.7382 C   0  0  0  0  0  0  0  0  0  0  0  0
    2.0958    1.7391   -1.4099 C   0  0  0  0  0  0  0  0  0  0  0  0
    0.9385    1.0063   -1.4166 C   0  0  0  0  0  0  0  0  0  0  0  0
   -0.0265    1.2376   -2.3571 C   0  0  0  0  0  0  0  0  0  0  0  0
   -1.0357    0.3123   -2.5310 C   0  0  0  0  0  0  0  0  0  0  0  0
   -1.1793   -0.6829   -1.5776 C   0  0  0  0  0  0  0  0  0  0  0  0
   -1.2606   -0.7274    1.4246 H   0  0  0  0  0  0  0  0  0  0  0  0
   -0.2826   -2.2989    1.0122 H   0  0  0  0  0  0  0  0  0  0  0  0
   -1.7820   -1.9364    0.4550 H   0  0  0  0  0  0  0  0  0  0  0  0
    0.4994   -0.1615    2.5883 H   0  0  0  0  0  0  0  0  0  0  0  0
    1.5588   -1.6265    2.0868 H   0  0  0  0  0  0  0  0  0  0  0  0
    2.0978   -0.1352    2.5672 H   0  0  0  0  0  0  0  0  0  0  0  0
    3.6855   -0.0149    0.9648 H   0  0  0  0  0  0  0  0  0  0  0  0
    4.1809    1.6336   -0.7847 H   0  0  0  0  0  0  0  0  0  0  0  0
    2.2381    2.5743   -2.0569 H   0  0  0  0  0  0  0  0  0  0  0  0
    0.2338    1.8133   -3.2394 H   0  0  0  0  0  0  0  0  0  0  0  0
   -1.6232    0.3079   -3.4387 H   0  0  0  0  0  0  0  0  0  0  0  0
   -1.9672   -1.4325   -1.7183 H   0  0  0  0  0  0  0  0  0  0  0  0
  1  2  1  0
  2  3  2  0
  3  4  1  0
  4  5  1  0
  4  6  2  0
  6  7  1  0
  7  8  2  0
  3  9  1  0
  9 10  2  0
 10 11  1  0
 11 12  2  0
 12  2  1  0
  9  8  1  0
  1 13  1  0
  1 14  1  0
  1 15  1  0
  5 16  1  0
  5 17  1  0
  5 18  1  0
  6 19  1  0
  7 20  1  0
  8 21  1  0
 10 22  1  0
 11 23  1  0
 12 24  1  0
M  END
$$$$

     RDKit          3D

 15 15  0  0  0  0  0  0  0  0999 V2000
    0.6378   -0.4426    0.7864 C   0  0  0  0  0  0  0  0  0  0  0  0
    1.7093   -0.5640   -0.0535 C   0  0  0  0  0  0  0  0  0  0  0  0
    2.0847    0.4816   -0.8655 C   0  0  0  0  0  0  0  0  0  0  0  0
    1.4202    1.6950   -0.8470 C   0  0  0  0  0  0  0  0  0  0  0  0
    0.2520    1.7848   -0.1284 C   0  0  0  0  0  0  0  0  0  0  0  0
   -0.0696    0.7494    0.7210 C   0  0  0  0  0  0  0  0  0  0  0  0
   -1.4441    0.7768    1.2836 C   0  0  0  0  0  0  0  0  0  0  0  0
    0.7395   -0.8052    1.8181 H   0  0  0  0  0  0  0  0  0  0  0  0
    2.5231   -1.1827    0.2832 H   0  0  0  0  0  0  0  0  0  0  0  0
    2.7611    0.3021   -1.6539 H   0  0  0  0  0  0  0  0  0  0  0  0
    1.5804    2.4713   -1.5847 H   0  0  0  0  0  0  0  0  0  0  0  0
   -0.0807    2.7847    0.1122 H   0  0  0  0  0  0  0  0  0  0  0  0
   -1.5035    0.0304    2.0686 H   0  0  0  0  0  0  0  0  0  0  0  0
   -2.1874    0.5430    0.5118 H   0  0  0  0  0  0  0  0  0  0  0  0
   -1.6846    1.7780    1.7049 H   0  0  0  0  0  0  0  0  0  0  0  0
  1  2  2  0
  2  3  1  0
  3  4  2  0
  4  5  1  0
  5  6  2  0
  6  7  1  0
  6  1  1  0
  1  8  1  0
  2  9  1  0
  3 10  1  0
  4 11  1  0
  5 12  1  0
  7 13  1  0
  7 14  1  0
  7 15  1  0
M  END
$$$$

     RDKit          3D

 15 14  0  0  0  0  0  0  0  0999 V2000
    0.4956   -1.5767    1.0233 C   0  0  0  0  0  0  0  0  0  0  0  0
    0.0942   -0.5783   -0.0171 C   0  0  0  0  0  0  0  0  0  0  0  0
    0.8343    0.5337    0.0501 C   0  0  0  0  0  0  0  0  0  0  0  0
    0.5850    1.7946   -0.6706 C   0  0  0  0  0  0  0  0  0  0  0  0
    0.1692    2.7818    0.4203 C   0  0  0  0  0  0  0  0  0  0  0  0
    0.6572   -1.0193    1.9819 H   0  0  0  0  0  0  0  0  0  0  0  0
   -0.2363   -2.3412    1.2343 H   0  0  0  0  0  0  0  0  0  0  0  0
    1.4440   -2.0280    0.6508 H   0  0  0  0  0  0  0  0  0  0  0  0
   -0.3375   -0.7414   -0.9654 H   0  0  0  0  0  0  0  0  0  0  0  0
    1.4300    0.7306    0.9507 H   0  0  0  0  0  0  0  0  0  0  0  0
    1.5252    2.1092   -1.1127 H   0  0  0  0  0  0  0  0  0  0  0  0
   -0.1707    1.7873   -1.4265 H   0  0  0  0  0  0  0  0  0  0  0  0
   -0.0333    3.7719    0.0201 H   0  0  0  0  0  0  0  0  0  0  0  0
    1.0281    2.8096    1.1322 H   0  0  0  0  0  0  0  0  0  0  0  0
   -0.7465    2.3688    0.8855 H   0  0  0  0  0  0  0  0  0  0  0  0
  1  2  1  0
  2  3  2  0
  3  4  1  0
  4  5  1  0
  1  6  1  0
  1  7  1  0
  1  8  1  0
  2  9  1  0
  3 10  1  0
  4 11  1  0
  4 12  1  0
  5 13  1  0
  5 14  1  0
  5 15  1  0
M  END
$$$$

     RDKit          3D

 30 33  0  0  0  0  0  0  0  0999 V2000
    1.2111    2.3950   -0.0227 C   0  0  0  0  0  0  0  0  0  0  0  0
    2.0113    1.5363   -0.6850 C   0  0  0  0  0  0  0  0  0  0  0  0
    2.4634    2.0065   -2.0149 C   0  0  0  0  0  0  0  0  0  0  0  0
    2.4102    3.8053   -1.8633 S   0  0  0  0  0  0  0  0  0  0  0  0
    1.4006    3.8101   -0.3578 C   0  0  0  0  0  0  0  0  0  0  0  0
    2.1473    0.2916   -0.1587 N   0  0  0  0  0  0  0  0  0  0  0  0
    1.1607   -0.2344    0.6155 C   0  0  0  0  0  0  0  0  0  0  0  0
    0.6844   -1.5247    0.8398 C   0  0  0  0  0  0  0  0  0  0  0  0
   -0.7149   -1.5176    0.7987 C   0  0  0  0  0  0  0  0  0  0  0  0
   -0.9901   -0.2293    1.0877 N   0  0  0  0  0  0  0  0  0  0  0  0
    0.1086    0.5270    1.0107 N   0  0  0  0  0  0  0  0  0  0  0  0
    0.2451    1.8618    0.8235 C   0  0  0  0  0  0  0  0  0  0  0  0
   -0.7128    2.5836    1.2271 O   0  0  0  0  0  0  0  0  0  0  0  0
   -1.5654   -2.3793   -0.0629 C   0  0  0  0  0  0  0  0  0  0  0  0
   -1.2154   -3.7111   -0.2723 C   0  0  0  0  0  0  0  0  0  0  0  0
   -1.2498   -4.2871   -1.5458 C   0  0  0  0  0  0  0  0  0  0  0  0
   -1.3720   -3.4663   -2.6630 C   0  0  0  0  0  0  0  0  0  0  0  0
   -2.0595   -2.2768   -2.4441 C   0  0  0  0  0  0  0  0  0  0  0  0
   -2.2816   -1.8512   -1.1385 C   0  0  0  0  0  0  0  0  0  0  0  0
    3.5227    1.6990   -2.1055 H   0  0  0  0  0  0  0  0  0  0  0  0
    1.8284    1.6499   -2.8367 H   0  0  0  0  0  0  0  0  0  0  0  0
    1.7997    4.4371    0.4316 H   0  0  0  0  0  0  0  0  0  0  0  0
    0.3958    4.1809   -0.6818 H   0  0  0  0  0  0  0  0  0  0  0  0
    2.7150   -0.4093   -0.7088 H   0  0  0  0  0  0  0  0  0  0  0  0
    1.2779   -2.4231    0.7027 H   0  0  0  0  0  0  0  0  0  0  0  0
   -0.8195   -4.2427    0.5831 H   0  0  0  0  0  0  0  0  0  0  0  0
   -0.7016   -5.2267   -1.6492 H   0  0  0  0  0  0  0  0  0  0  0  0
   -0.7123   -3.5829   -3.5241 H   0  0  0  0  0  0  0  0  0  0  0  0
   -2.2187   -1.6139   -3.2961 H   0  0  0  0  0  0  0  0  0  0  0  0
   -2.6538   -0.8418   -0.9979 H   0  0  0  0  0  0  0  0  0  0  0  0
  1  2  2  0
  2  3  1  0
  3  4  1  0
  4  5  1  0
  2  6  1  0
  6  7  1  0
  7  8  2  0
  8  9  1  0
  9 10  2  0
 10 11  1  0
 11 12  1  0
 12 13  2  0
  9 14  1  0
 14 15  2  0
 15 16  1  0
 16 17  2  0
 17 18  1  0
 18 19  2  0
  1 12  1  0
  5  1  1  0
 11  7  1  0
 19 14  1  0
  3 20  1  0
  3 21  1  0
  5 22  1  0
  5 23  1  0
  6 24  1  0
  8 25  1  0
 15 26  1  0
 16 27  1  0
 17 28  1  0
 18 29  1  0
 19 30  1  0
M  END
$$$$

     RDKit          3D

 18 18  0  0  0  0  0  0  0  0999 V2000
   -0.8607   -0.9716   -0.0131 C   0  0  0  0  0  0  0  0  0  0  0  0
    0.4252   -1.5444   -0.4933 C   0  0  0  0  0  0  0  0  0  0  0  0
    1.3639   -0.3992   -0.6815 C   0  0  0  0  0  0  0  0  0  0  0  0
    1.5523    0.2379    0.7010 C   0  0  0  0  0  0  0  0  0  0  0  0
    0.6637    1.4197    0.9073 C   0  0  0  0  0  0  0  0  0  0  0  0
   -0.8548    0.7744    0.2787 S   0  0  0  0  0  0  0  0  0  0  0  0
   -1.2127    1.5131   -0.9638 O   0  0  0  0  0  0  0  0  0  0  0  0
   -1.7907    0.9044    1.4219 O   0  0  0  0  0  0  0  0  0  0  0  0
   -1.5072   -1.0805   -0.9376 H   0  0  0  0  0  0  0  0  0  0  0  0
   -1.2996   -1.5822    0.7905 H   0  0  0  0  0  0  0  0  0  0  0  0
    0.9018   -2.1567    0.3327 H   0  0  0  0  0  0  0  0  0  0  0  0
    0.3131   -2.2701   -1.2657 H   0  0  0  0  0  0  0  0  0  0  0  0
    1.0334    0.3651   -1.4090 H   0  0  0  0  0  0  0  0  0  0  0  0
    2.3839   -0.7249   -0.9228 H   0  0  0  0  0  0  0  0  0  0  0  0
    1.0584   -0.5362    1.3605 H   0  0  0  0  0  0  0  0  0  0  0  0
    2.5619    0.3143    1.0600 H   0  0  0  0  0  0  0  0  0  0  0  0
    0.6643    1.6755    1.9864 H   0  0  0  0  0  0  0  0  0  0  0  0
    1.0884    2.2385    0.3195 H   0  0  0  0  0  0  0  0  0  0  0  0
  1  2  1  0
  2  3  1  0
  3  4  1  0
  4  5  1  0
  5  6  1  0
  6  7  2  0
  6  8  2  0
  6  1  1  0
  1  9  1  0
  1 10  1  0
  2 11  1  0
  2 12  1  0
  3 13  1  0
  3 14  1  0
  4 15  1  0
  4 16  1  0
  5 17  1  0
  5 18  1  0
M  END
$$$$

     RDKit          3D

 12 12  0  0  0  0  0  0  0  0999 V2000
    0.1494    0.3282   -1.0324 C   0  0  0  0  0  0  0  0  0  0  0  0
    0.9463   -0.5872   -0.4107 C   0  0  0  0  0  0  0  0  0  0  0  0
    1.5064   -0.2764    0.8168 C   0  0  0  0  0  0  0  0  0  0  0  0
    1.5803    1.0749    1.1205 C   0  0  0  0  0  0  0  0  0  0  0  0
    0.6675    1.9745    0.5836 C   0  0  0  0  0  0  0  0  0  0  0  0
   -0.1169    1.5804   -0.4833 C   0  0  0  0  0  0  0  0  0  0  0  0
   -0.1939    0.1128   -2.0182 H   0  0  0  0  0  0  0  0  0  0  0  0
    1.1756   -1.5721   -0.8228 H   0  0  0  0  0  0  0  0  0  0  0  0
    1.6493   -1.0316    1.5719 H   0  0  0  0  0  0  0  0  0  0  0  0
    2.2930    1.3411    1.8948 H   0  0  0  0  0  0  0  0  0  0  0  0
    0.4586    2.8660    1.1222 H   0  0  0  0  0  0  0  0  0  0  0  0
   -1.1686    1.8771   -0.5072 H   0  0  0  0  0  0  0  0  0  0  0  0
  1  2  2  0
  2  3  1  0
  3  4  2  0
  4  5  1  0
  5  6  2  0
  6  1  1  0
  1  7  1  0
  2  8  1  0
  3  9  1  0
  4 10  1  0
  5 11  1  0
  6 12  1  0
M  END
$$$$

     RDKit          3D

 15 15  0  0  0  0  0  0  0  0999 V2000
    0.6310   -0.4663   -0.9837 C   0  0  0  0  0  0  0  0  0  0  0  0
    0.3397   -1.9104   -0.6310 C   0  0  0  0  0  0  0  0  0  0  0  0
   -0.7976   -2.2741   -1.5453 C   0  0  0  0  0  0  0  0  0  0  0  0
   -0.4345   -1.5359   -2.7734 C   0  0  0  0  0  0  0  0  0  0  0  0
   -0.0098   -0.1782   -2.3094 C   0  0  0  0  0  0  0  0  0  0  0  0
    1.7412   -0.3672   -1.0107 H   0  0  0  0  0  0  0  0  0  0  0  0
    0.2405    0.2364   -0.2340 H   0  0  0  0  0  0  0  0  0  0  0  0
    0.0370   -2.0694    0.4025 H   0  0  0  0  0  0  0  0  0  0  0  0
    1.1912   -2.5566   -0.9390 H   0  0  0  0  0  0  0  0  0  0  0  0
   -1.8004   -2.1053   -1.1255 H   0  0  0  0  0  0  0  0  0  0  0  0
   -0.7979   -3.3414   -1.8660 H   0  0  0  0  0  0  0  0  0  0  0  0
    0.4721   -2.0433   -3.1961 H   0  0  0  0  0  0  0  0  0  0  0  0
   -1.2489   -1.5421   -3.5240 H   0  0  0  0  0  0  0  0  0  0  0  0
    0.6817    0.2070   -3.0743 H   0  0  0  0  0  0  0  0  0  0  0  0
   -0.8688    0.5100   -2.2556 H   0  0  0  0  0  0  0  0  0  0  0  0
  1  2  1  0
  2  3  1  0
  3  4  1  0
  4  5  1  0
  5  1  1  0
  1  6  1  0
  1  7  1  0
  2  8  1  0
  2  9  1  0
  3 10  1  0
  3 11  1  0
  4 12  1  0
  4 13  1  0
  5 14  1  0
  5 15  1  0
M  END
$$$$

     RDKit          3D

 18 18  0  0  0  0  0  0  0  0999 V2000
    1.0328   -1.2465    0.0259 C   0  0  0  0  0  0  0  0  0  0  0  0
    1.0729   -0.3282   -1.1439 C   0  0  0  0  0  0  0  0  0  0  0  0
    0.1329    0.8186   -0.9394 C   0  0  0  0  0  0  0  0  0  0  0  0
   -0.0860    1.2063    0.4733 C   0  0  0  0  0  0  0  0  0  0  0  0
   -0.0705    0.1553    1.5081 C   0  0  0  0  0  0  0  0  0  0  0  0
   -0.1675   -1.2226    0.8862 C   0  0  0  0  0  0  0  0  0  0  0  0
    1.9152   -1.1345    0.7123 H   0  0  0  0  0  0  0  0  0  0  0  0
    1.0534   -2.2777   -0.3841 H   0  0  0  0  0  0  0  0  0  0  0  0
    0.9250   -0.8355   -2.0958 H   0  0  0  0  0  0  0  0  0  0  0  0
    2.1284    0.0595   -1.1866 H   0  0  0  0  0  0  0  0  0  0  0  0
    0.5993    1.6611   -1.5170 H   0  0  0  0  0  0  0  0  0  0  0  0
   -0.8201    0.6171   -1.4605 H   0  0  0  0  0  0  0  0  0  0  0  0
   -0.8848    1.9642    0.5841 H   0  0  0  0  0  0  0  0  0  0  0  0
    0.8217    1.8392    0.7176 H   0  0  0  0  0  0  0  0  0  0  0  0
   -0.9351    0.2408    2.1751 H   0  0  0  0  0  0  0  0  0  0  0  0
    0.8967    0.1149    2.0763 H   0  0  0  0  0  0  0  0  0  0  0  0
   -1.1215   -1.4089    0.4079 H   0  0  0  0  0  0  0  0  0  0  0  0
   -0.0081   -2.0460    1.6319 H   0  0  0  0  0  0  0  0  0  0  0  0
  1  2  1  0
  2  3  1  0
  3  4  1  0
  4  5  1  0
  5  6  1  0
  6  1  1  0
  1  7  1  0
  1  8  1  0
  2  9  1  0
  2 10  1  0
  3 11  1  0
  3 12  1  0
  4 13  1  0
  4 14  1  0
  5 15  1  0
  5 16  1  0
  6 17  1  0
  6 18  1  0
M  END
$$$$

     RDKit          3D

 15 15  0  0  0  0  0  0  0  0999 V2000
   -0.4966   -0.3300    0.1722 C   0  0  0  0  0  0  0  0  0  0  0  0
    0.7395   -0.5998    0.7737 C   0  0  0  0  0  0  0  0  0  0  0  0
    0.4658    0.8693    0.2998 C   0  0  0  0  0  0  0  0  0  0  0  0
    1.3593    1.1667   -0.8590 C   0  0  0  0  0  0  0  0  0  0  0  0
   -0.0681    1.8605    1.2614 C   0  0  0  0  0  0  0  0  0  0  0  0
   -0.7056   -0.5047   -0.9001 H   0  0  0  0  0  0  0  0  0  0  0  0
   -1.3977   -0.4047    0.7914 H   0  0  0  0  0  0  0  0  0  0  0  0
    1.3483   -0.3178    1.6172 H   0  0  0  0  0  0  0  0  0  0  0  0
    1.3459   -1.2702    0.1314 H   0  0  0  0  0  0  0  0  0  0  0  0
    1.5571    2.2096   -1.1326 H   0  0  0  0  0  0  0  0  0  0  0  0
    2.3050    0.6738   -0.7374 H   0  0  0  0  0  0  0  0  0  0  0  0
    0.7972    0.7265   -1.7032 H   0  0  0  0  0  0  0  0  0  0  0  0
   -0.9322    1.4896    1.8320 H   0  0  0  0  0  0  0  0  0  0  0  0
    0.7440    2.0880    1.9875 H   0  0  0  0  0  0  0  0  0  0  0  0
   -0.3236    2.7459    0.6224 H   0  0  0  0  0  0  0  0  0  0  0  0
  1  2  1  0
  2  3  1  0
  3  4  1  0
  3  5  1  0
  3  1  1  0
  1  6  1  0
  1  7  1  0
  2  8  1  0
  2  9  1  0
  4 10  1  0
  4 11  1  0
  4 12  1  0
  5 13  1  0
  5 14  1  0
  5 15  1  0
M  END
$$$$

     RDKit          3D

 16 17  0  0  0  0  0  0  0  0999 V2000
    0.6422    0.2124    0.2732 C   0  0  0  0  0  0  0  0  0  0  0  0
    1.9388   -0.1991   -0.0643 C   0  0  0  0  0  0  0  0  0  0  0  0
   -0.0681    0.5103   -1.0198 C   0  0  0  0  0  0  0  0  0  0  0  0
   -0.4489    1.1792    0.1094 C   0  0  0  0  0  0  0  0  0  0  0  0
   -0.0106    1.5658    1.4660 C   0  0  0  0  0  0  0  0  0  0  0  0
   -0.0233    0.0425    1.5753 C   0  0  0  0  0  0  0  0  0  0  0  0
    2.8207    0.1517    0.5441 H   0  0  0  0  0  0  0  0  0  0  0  0
    2.3339    0.0017   -1.1009 H   0  0  0  0  0  0  0  0  0  0  0  0
    2.0355   -1.3167   -0.0584 H   0  0  0  0  0  0  0  0  0  0  0  0
   -0.3597   -0.4929   -1.4349 H   0  0  0  0  0  0  0  0  0  0  0  0
    0.4769    1.0790   -1.8189 H   0  0  0  0  0  0  0  0  0  0  0  0
   -1.5253    0.8520    0.2626 H   0  0  0  0  0  0  0  0  0  0  0  0
   -0.7229    2.0958    2.1025 H   0  0  0  0  0  0  0  0  0  0  0  0
    0.9842    2.0157    1.4978 H   0  0  0  0  0  0  0  0  0  0  0  0
    0.5059   -0.3520    2.4177 H   0  0  0  0  0  0  0  0  0  0  0  0
   -1.0701   -0.3036    1.3908 H   0  0  0  0  0  0  0  0  0  0  0  0
  1  2  1  0
  1  3  1  0
  3  4  1  0
  4  5  1  0
  5  6  1  0
  4  1  1  0
  6  1  1  0
  2  7  1  0
  2  8  1  0
  2  9  1  0
  3 10  1  0
  3 11  1  0
  4 12  1  0
  5 13  1  0
  5 14  1  0
  6 15  1  0
  6 16  1  0
M  END
$$$$
