
     RDKit          3D

 31 31  0  0  0  0  0  0  0  0999 V2000
   -2.0690    2.0225   -1.6761 O   0  0  0  0  0  0  0  0  0  0  0  0
   -1.3563    1.6387   -0.6860 C   0  0  0  0  0  0  0  0  0  0  0  0
    0.0353    1.8733   -0.7168 N   0  0  0  0  0  0  0  0  0  0  0  0
    0.8410    2.2132    0.4235 C   0  0  0  0  0  0  0  0  0  0  0  0
    2.0805    1.4093    0.5570 C   0  0  0  0  0  0  0  0  0  0  0  0
    2.0432    0.0554   -0.0571 C   0  0  0  0  0  0  0  0  0  0  0  0
    1.2304   -0.9500    0.7106 C   0  0  0  0  0  0  0  0  0  0  0  0
    0.8743   -2.0928   -0.1849 C   0  0  0  0  0  0  0  0  0  0  0  0
   -0.6190   -2.3057   -0.3170 C   0  0  0  0  0  0  0  0  0  0  0  0
   -1.3422   -1.0927   -0.8123 C   0  0  0  0  0  0  0  0  0  0  0  0
   -2.2752   -0.5002    0.1978 C   0  0  0  0  0  0  0  0  0  0  0  0
   -2.0759    0.9736    0.4151 C   0  0  0  0  0  0  0  0  0  0  0  0
    0.5188    1.7941   -1.6392 H   0  0  0  0  0  0  0  0  0  0  0  0
    1.1234    3.3001    0.2938 H   0  0  0  0  0  0  0  0  0  0  0  0
    0.2819    2.1761    1.3747 H   0  0  0  0  0  0  0  0  0  0  0  0
    2.9312    1.9705    0.0747 H   0  0  0  0  0  0  0  0  0  0  0  0
    2.3697    1.3066    1.6230 H   0  0  0  0  0  0  0  0  0  0  0  0
    1.7569    0.1143   -1.1349 H   0  0  0  0  0  0  0  0  0  0  0  0
    3.1018   -0.3310   -0.0706 H   0  0  0  0  0  0  0  0  0  0  0  0
    1.8838   -1.2908    1.5671 H   0  0  0  0  0  0  0  0  0  0  0  0
    0.3308   -0.5326    1.1736 H   0  0  0  0  0  0  0  0  0  0  0  0
    1.2702   -3.0415    0.2852 H   0  0  0  0  0  0  0  0  0  0  0  0
    1.3832   -2.0500   -1.1790 H   0  0  0  0  0  0  0  0  0  0  0  0
   -0.7453   -3.1292   -1.0666 H   0  0  0  0  0  0  0  0  0  0  0  0
   -1.0163   -2.6957    0.6321 H   0  0  0  0  0  0  0  0  0  0  0  0
   -0.5928   -0.3750   -1.1807 H   0  0  0  0  0  0  0  0  0  0  0  0
   -1.9718   -1.3515   -1.7144 H   0  0  0  0  0  0  0  0  0  0  0  0
   -2.1718   -1.0454    1.1783 H   0  0  0  0  0  0  0  0  0  0  0  0
   -3.3547   -0.6379   -0.0769 H   0  0  0  0  0  0  0  0  0  0  0  0
   -3.0267    1.4931    0.6667 H   0  0  0  0  0  0  0  0  0  0  0  0
   -1.4392    1.0814    1.3392 H   0  0  0  0  0  0  0  0  0  0  0  0
  1  2  2  0
  2  3  1  0
  3  4  1  0
  4  5  1  0
  5  6  1  0
  6  7  1  0
  7  8  1  0
  8  9  1  0
  9 10  1  0
 10 11  1  0
 11 12  1  0
 12  2  1  0
  3 13  1  0
  4 14  1  0
  4 15  1  0
  5 16  1  0
  5 17  1  0
  6 18  1  0
  6 19  1  0
  7 20  1  0
  7 21  1  0
  8 22  1  0
  8 23  1  0
  9 24  1  0
  9 25  1  0
 10 26  1  0
 10 27  1  0
 11 28  1  0
 11 29  1  0
 12 30  1  0
 12 31  1  0
M  END
