OCCC seed 42
     RDKit          3D

 12 11  0  0  0  0  0  0  0  0999 V2000
    1.8785   -0.8310   -0.0228 O   0  0  0  0  0  0  0  0  0  0  0  0
    0.9200    0.1311   -0.3107 C   0  0  0  0  0  0  0  0  0  0  0  0
   -0.2301   -0.0363    0.6497 C   0  0  0  0  0  0  0  0  0  0  0  0
   -1.5034    0.0353   -0.2012 C   0  0  0  0  0  0  0  0  0  0  0  0
    2.7085   -0.3542    0.2059 H   0  0  0  0  0  0  0  0  0  0  0  0
    0.6206   -0.0290   -1.3726 H   0  0  0  0  0  0  0  0  0  0  0  0
    1.2807    1.1623   -0.2252 H   0  0  0  0  0  0  0  0  0  0  0  0
   -0.2888    0.7823    1.3979 H   0  0  0  0  0  0  0  0  0  0  0  0
   -0.1715   -0.9944    1.2067 H   0  0  0  0  0  0  0  0  0  0  0  0
   -1.4625    1.0047   -0.7314 H   0  0  0  0  0  0  0  0  0  0  0  0
   -2.3989   -0.1238    0.3996 H   0  0  0  0  0  0  0  0  0  0  0  0
   -1.3530   -0.7469   -0.9958 H   0  0  0  0  0  0  0  0  0  0  0  0
  1  2  1  0
  2  3  1  0
  3  4  1  0
  1  5  1  0
  2  6  1  0
  2  7  1  0
  3  8  1  0
  3  9  1  0
  4 10  1  0
  4 11  1  0
  4 12  1  0
M  END