
     RDKit          3D

  0  0  0  0  0  0  0  0  0  0999 V3000
M  V30 BEGIN CTAB
M  V30 COUNTS 66 72 0 0 0
M  V30 BEGIN ATOM
M  V30 1 Cl 2.604800 0.408300 -1013.120000 0
M  V30 2 C 2.827000 1.095400 -1013.780000 0
M  V30 3 C 2.388300 1.166000 -1014.440000 0
M  V30 4 C 1.749100 0.697100 -1014.600000 0
M  V30 5 C 1.021500 0.863300 -1014.390000 0
M  V30 6 C 0.701800 1.508900 -1013.970000 0
M  V30 7 H 0.363600 1.866700 -1014.340000 0
M  V30 8 H 1.144000 1.863900 -1013.720000 0
M  V30 9 H 0.342900 1.316200 -1013.500000 0
M  V30 10 N 0.587500 0.283400 -1014.650000 0
M  V30 11 C -0.299100 0.226500 -1014.540000 0
M  V30 12 H -0.412100 0.210100 -1013.930000 0
M  V30 13 C -0.744000 -0.409500 -1014.970000 0
M  V30 14 H -0.482000 -0.592000 -1015.500000 0
M  V30 15 H -0.873700 -0.910200 -1014.630000 0
M  V30 16 C -1.370800 0.160100 -1015.070000 0
M  V30 17 C -0.820500 0.803400 -1014.970000 0
M  V30 18 H -1.013300 1.282400 -1014.630000 0
M  V30 19 H -0.576000 1.018800 -1015.490000 0
M  V30 20 C -1.853500 0.130200 -1015.760000 0
M  V30 21 H -1.791900 -0.370600 -1016.120000 0
M  V30 22 H -1.867700 0.641300 -1016.110000 0
M  V30 23 N -2.495300 0.077900 -1015.250000 0
M  V30 24 C -3.249000 0.014600 -1015.400000 0
M  V30 25 O -3.525300 -0.009900 -1016.040000 0
M  V30 26 C -3.742500 -0.024900 -1014.730000 0
M  V30 27 C -4.487400 -0.087400 -1014.830000 0
M  V30 28 H -4.857600 -0.117100 -1014.340000 0
M  V30 29 H -4.753000 -0.111000 -1015.380000 0
M  V30 30 H -3.505800 -0.003600 -1014.170000 0
M  V30 31 C -2.048500 0.116000 -1014.560000 0
M  V30 32 H -2.170600 0.619200 -1014.220000 0
M  V30 33 H -2.097300 -0.392900 -1014.210000 0
M  V30 34 N 0.980600 -0.250500 -1015.020000 0
M  V30 35 C 1.689800 0.005200 -1014.990000 0
M  V30 36 C 2.293800 -0.421000 -1015.330000 0
M  V30 37 C 2.677300 -0.964300 -1014.900000 0
M  V30 38 H 2.527400 -1.072200 -1014.320000 0
M  V30 39 C 3.264300 -1.373300 -1015.250000 0
M  V30 40 C 3.446500 -1.228300 -1016.000000 0
M  V30 41 N 4.029400 -1.709100 -1016.160000 0
M  V30 42 C 4.419700 -1.775400 -1016.880000 0
M  V30 43 H 4.676800 -1.229900 -1017.010000 0
M  V30 44 H 4.008600 -1.934200 -1017.310000 0
M  V30 45 H 4.857600 -2.208900 -1016.830000 0
M  V30 46 N 4.239900 -2.152600 -1015.580000 0
M  V30 47 C 3.773100 -1.946900 -1015.030000 0
M  V30 48 H 3.822400 -2.222800 -1014.480000 0
M  V30 49 C 3.071600 -0.689100 -1016.430000 0
M  V30 50 H 3.222000 -0.583800 -1017.020000 0
M  V30 51 C 2.488500 -0.286500 -1016.080000 0
M  V30 52 H 2.187300 0.136900 -1016.410000 0
M  V30 53 C 2.581900 1.726700 -1014.970000 0
M  V30 54 C 3.198800 2.192000 -1014.820000 0
M  V30 55 N 3.238300 2.668700 -1015.430000 0
M  V30 56 H 3.618500 3.085800 -1015.520000 0
M  V30 57 N 2.700100 2.552100 -1015.950000 0
M  V30 58 C 2.302000 1.978600 -1015.670000 0
M  V30 59 H 1.824400 1.768600 -1015.990000 0
M  V30 60 C 3.643500 2.131000 -1014.170000 0
M  V30 61 H 4.120600 2.505100 -1014.080000 0
M  V30 62 C 3.443700 1.570300 -1013.650000 0
M  V30 63 C 3.917400 1.500900 -1012.960000 0
M  V30 64 H 3.575500 1.597900 -1012.450000 0
M  V30 65 H 4.376300 1.916600 -1012.950000 0
M  V30 66 H 4.180000 0.941600 -1012.930000 0
M  V30 END ATOM
M  V30 BEGIN BOND
M  V30 1 1 1 2
M  V30 2 2 2 3
M  V30 3 1 3 4
M  V30 4 2 4 5
M  V30 5 1 5 6
M  V30 6 1 6 7
M  V30 7 1 6 8
M  V30 8 1 6 9
M  V30 9 1 5 10
M  V30 10 1 10 11
M  V30 11 1 11 12
M  V30 12 1 11 13
M  V30 13 1 13 14
M  V30 14 1 13 15
M  V30 15 1 13 16
M  V30 16 1 16 17
M  V30 17 1 17 18
M  V30 18 1 17 19
M  V30 19 1 16 20
M  V30 20 1 20 21
M  V30 21 1 20 22
M  V30 22 1 20 23
M  V30 23 1 23 24
M  V30 24 2 24 25
M  V30 25 1 24 26
M  V30 26 2 26 27
M  V30 27 1 27 28
M  V30 28 1 27 29
M  V30 29 1 26 30
M  V30 30 1 23 31
M  V30 31 1 31 32
M  V30 32 1 31 33
M  V30 33 1 10 34
M  V30 34 2 34 35
M  V30 35 1 35 36
M  V30 36 2 36 37
M  V30 37 1 37 38
M  V30 38 1 37 39
M  V30 39 2 39 40
M  V30 40 1 40 41
M  V30 41 1 41 42
M  V30 42 1 42 43
M  V30 43 1 42 44
M  V30 44 1 42 45
M  V30 45 1 41 46
M  V30 46 2 46 47
M  V30 47 1 47 48
M  V30 48 1 40 49
M  V30 49 1 49 50
M  V30 50 2 49 51
M  V30 51 1 51 52
M  V30 52 1 3 53 CFG=3
M  V30 53 2 53 54
M  V30 54 1 54 55
M  V30 55 1 55 56
M  V30 56 1 55 57
M  V30 57 2 57 58
M  V30 58 1 58 59
M  V30 59 1 54 60
M  V30 60 1 60 61
M  V30 61 2 60 62
M  V30 62 1 62 63
M  V30 63 1 63 64
M  V30 64 1 63 65
M  V30 65 1 63 66
M  V30 66 1 62 2
M  V30 67 1 4 35
M  V30 68 1 51 36
M  V30 69 1 58 53
M  V30 70 1 17 11
M  V30 71 1 47 39
M  V30 72 1 31 16
M  V30 END BOND
M  V30 END CTAB
M  END
