
     RDKit          3D

 14 13  0  0  0  0  0  0  0  0999 V2000
   -1.2618    0.3249    0.0306 C   0  0  0  0  0  0  0  0  0  0  0  0
    0.1892    0.0066    0.4133 C   0  0  1  0  0  0  0  0  0  0  0  0
    0.7103   -1.1225   -0.4851 C   0  0  0  0  0  0  0  0  0  0  0  0
    0.0622   -2.0998   -0.8279 O   0  0  0  0  0  0  0  0  0  0  0  0
    2.0018   -0.9106   -0.8490 O   0  0  0  0  0  0  0  0  0  0  0  0
    1.1034    1.1813    0.2661 N   0  0  0  0  0  0  0  0  0  0  0  0
   -2.1525   -0.6759    0.5149 O   0  0  0  0  0  0  0  0  0  0  0  0
   -1.3931    0.4136   -1.0536 H   0  0  0  0  0  1  0  0  0  0  0  0
   -1.5744    1.2704    0.4862 H   0  0  0  0  0  1  0  0  0  0  0  0
    0.2544   -0.3589    1.4443 H   0  0  0  0  0  1  0  0  0  0  0  0
    2.2606   -0.0451   -0.4425 H   0  0  0  0  0  1  0  0  0  0  0  0
    0.8371    1.6943   -0.5818 H   0  0  0  0  0  1  0  0  0  0  0  0
    0.8864    1.8335    1.0270 H   0  0  0  0  0  1  0  0  0  0  0  0
   -1.9236   -1.5118    0.0576 H   0  0  0  0  0  1  0  0  0  0  0  0
  2  1  1  6
  2  3  1  0
  3  4  2  0
  3  5  1  0
  2  6  1  0
  1  7  1  0
  1  8  1  0
  1  9  1  0
  2 10  1  0
  5 11  1  0
  6 12  1  0
  6 13  1  0
  7 14  1  0
M  END
