
  Marvin  01200921453D          

  6  5  0  0  0  0            999 V2000
    1.5451   -0.6263    2.2947 C   0  0  0  0  0  0  0  0  0  0  0  0
    0.2435   -0.8584    1.4852 C   0  0  2  0  0  0  0  0  0  0  0  0
   -0.0621    0.3372    0.5287 C   0  0  0  0  0  0  0  0  0  0  0  0
   -1.3396    0.2045   -0.3364 C   0  0  0  0  0  0  0  0  0  0  0  0
   -1.0779   -1.1250    2.6290 Cl  0  0  0  0  0  0  0  0  0  0  0  0
    0.5009   -2.6647    0.3896 I   0  0  0  0  0  0  0  0  0  0  0  0
  1  2  1  0  0  0  0
  2  3  1  0  0  0  0
  3  4  1  0  0  0  0
  2  5  1  0  0  0  0
  2  6  1  0  0  0  0
M  END
