
  ChemDraw06242521153D

 14 15  0  0  0  0  0  0  0  0999 V2000
    2.0809   -0.1058    4.5991 C   0  0  0  0  0  0  0  0  0  0  0  0
    0.5579   -0.1058    4.5991 C   0  0  0  0  0  0  0  0  0  0  0  0
    2.5516   -0.1058    3.1512 C   0  0  0  0  0  0  0  0  0  0  0  0
    1.3194   -0.1058    2.2544 C   0  0  0  0  0  0  0  0  0  0  0  0
    0.0873    0.1058    3.1512 N   0  0  0  0  0  0  0  0  0  0  0  0
    1.3194   -0.1058    0.7314 C   0  0  0  0  0  0  0  0  0  0  0  0
    2.6383   -0.1058   -0.0301 C   0  0  0  0  0  0  0  0  0  0  0  0
    2.6383   -0.1058   -1.5531 C   0  0  0  0  0  0  0  0  0  0  0  0
    1.3194   -0.1058   -2.3146 C   0  0  0  0  0  0  0  0  0  0  0  0
    0.0005   -0.1058   -1.5531 C   0  0  0  0  0  0  0  0  0  0  0  0
    0.0005   -0.1058   -0.0301 C   0  0  0  0  0  0  0  0  0  0  0  0
   -1.3194   -0.1058   -2.3146 C   0  0  0  0  0  0  0  0  0  0  0  0
   -1.3194   -0.1058   -3.8376 N   0  0  0  0  0  0  0  0  0  0  0  0
   -2.6383   -0.1058   -4.5991 C   0  0  0  0  0  0  0  0  0  0  0  0
  1  2  2  0        0
  1  3  1  0        0
  3  4  2  0        0
  4  5  1  0        0
  5  2  1  0        0
  4  6  1  0        0
  6  7  2  0        0
  7  8  1  0        0
  8  9  2  0        0
  9 10  1  0        0
 10 11  2  0        0
  6 11  1  1        0
 10 12  1  0        0
 12 13  1  0        0
 14 13  1  0        0
M  END
