
     RDKit          3D

  0  0  0  0  0  0  0  0  0  0999 V3000
M  V30 BEGIN CTAB
M  V30 COUNTS 72 77 0 0 1
M  V30 BEGIN ATOM
M  V30 1 F -1.194500 -2.279000 -15355.589400 0
M  V30 2 F 3.529200 -1.064000 -15354.435200 0
M  V30 3 O -1.770600 2.244000 -15353.685200 0
M  V30 4 O -3.565700 -1.294300 -15353.931000 0
M  V30 5 O 1.006200 0.531900 -15355.109200 0
M  V30 6 O 1.355400 -1.817100 -15355.670500 0
M  V30 7 N -2.665900 -0.244200 -15354.351800 0
M  V30 8 N 1.139100 -0.657900 -15355.411900 0
M  V30 9 N -3.357100 -2.413000 -15354.213000 0
M  V30 10 N 2.215300 -1.184100 -15355.108200 0
M  V30 11 C -2.012600 1.561800 -15354.714000 0 CFG=1
M  V30 12 C -1.256800 1.333400 -15354.767800 0
M  V30 13 C -2.442600 1.041000 -15354.289700 0
M  V30 14 C -2.040100 2.278300 -15354.385400 0
M  V30 15 C -1.206900 0.620800 -15355.160500 0
M  V30 16 C -2.283600 0.332600 -15354.499200 0
M  V30 17 C -1.725600 0.130600 -15354.877500 0
M  V30 18 C -1.772500 -0.595100 -15354.953300 0
M  V30 19 C -2.365700 -0.799100 -15354.588100 0
M  V30 20 C -1.603600 2.786400 -15354.802500 0
M  V30 21 C -2.784100 2.550900 -15354.295400 0
M  V30 22 C -1.369200 -1.092900 -15355.284500 0
M  V30 23 C -2.572900 -1.490900 -15354.559800 0
M  V30 24 C -1.571100 -1.784200 -15355.256500 0
M  V30 25 C -0.757100 -0.888400 -15355.650000 0
M  V30 26 C -2.163800 -1.978100 -15354.897200 0
M  V30 27 C -0.115700 -0.875000 -15355.348500 0
M  V30 28 C -3.190300 -1.700600 -15354.191400 0
M  V30 29 C -0.815500 -0.728200 -15356.361100 0
M  V30 30 C 0.467100 -0.674500 -15355.711700 0
M  V30 31 C -0.048800 -1.067000 -15354.619000 0
M  V30 32 C -0.232500 -0.527500 -15356.724400 0
M  V30 33 C 0.408900 -0.514000 -15356.422900 0
M  V30 34 C 1.333400 -0.021700 -15355.098800 0
M  V30 35 C 1.557200 -1.262600 -15355.434000 0
M  V30 36 C 2.006400 -0.003700 -15354.738000 0
M  V30 37 C 2.437000 -0.583600 -15354.774400 0
M  V30 38 C 2.212100 0.592100 -15354.401600 0
M  V30 39 C 2.681300 -1.779700 -15355.135400 0
M  V30 40 C 3.082500 -0.533400 -15354.432200 0
M  V30 41 C 2.851900 0.636500 -15354.056100 0
M  V30 42 C 3.287800 0.060700 -15354.094800 0
M  V30 43 H -2.237500 1.592500 -15355.226600 0
M  V30 44 H -1.014300 1.266400 -15354.296000 0
M  V30 45 H -0.947500 1.682700 -15355.093100 0
M  V30 46 H -2.328600 1.101200 -15353.705800 0
M  V30 47 H -2.994800 1.143700 -15354.349000 0
M  V30 48 H -0.682100 0.419900 -15355.106400 0
M  V30 49 H -1.296600 0.702500 -15355.702600 0
M  V30 50 H -3.102400 -0.231000 -15354.050100 0
M  V30 51 H -1.726000 2.775600 -15355.353000 0
M  V30 52 H -1.050200 2.719100 -15354.701800 0
M  V30 53 H -1.694400 3.315800 -15354.613300 0
M  V30 54 H -3.045600 2.518400 -15354.833300 0
M  V30 55 H -2.800400 3.080300 -15354.106100 0
M  V30 56 H -3.084800 2.244900 -15353.933100 0
M  V30 57 H -1.784000 2.688500 -15353.508800 0
M  V30 58 H -2.280500 -2.545700 -15354.940600 0
M  V30 59 H -1.311300 -0.761900 -15356.650900 0
M  V30 60 H -0.239900 -1.580400 -15354.508200 0
M  V30 61 H 0.479700 -1.037800 -15354.388400 0
M  V30 62 H -0.341000 -0.689900 -15354.280000 0
M  V30 63 H -0.277900 -0.408200 -15357.288200 0
M  V30 64 H 0.859600 -0.351600 -15356.702200 0
M  V30 65 H -3.083300 -2.786400 -15354.430500 0
M  V30 66 H -3.788100 -2.560800 -15353.942100 0
M  V30 67 H 1.880300 1.054200 -15354.359100 0
M  V30 68 H 2.775500 -1.959400 -15354.598600 0
M  V30 69 H 3.161000 -1.639300 -15355.402000 0
M  V30 70 H 2.457900 -2.213900 -15355.441500 0
M  V30 71 H 3.009400 1.084300 -15353.819800 0
M  V30 72 H 3.788100 0.074800 -15353.855500 0
M  V30 END ATOM
M  V30 BEGIN BOND
M  V30 1 1 1 24
M  V30 2 1 2 40
M  V30 3 1 3 14
M  V30 4 1 3 57
M  V30 5 2 4 28
M  V30 6 2 5 34
M  V30 7 2 6 35
M  V30 8 1 7 16
M  V30 9 1 7 19
M  V30 10 1 7 50
M  V30 11 1 8 30
M  V30 12 1 8 34
M  V30 13 1 8 35 CFG=3
M  V30 14 1 9 28
M  V30 15 1 9 65
M  V30 16 1 9 66
M  V30 17 1 10 35
M  V30 18 1 10 37
M  V30 19 1 10 39
M  V30 20 1 11 12
M  V30 21 1 11 13
M  V30 22 1 11 14 CFG=1
M  V30 23 1 11 43
M  V30 24 1 12 15
M  V30 25 1 12 44
M  V30 26 1 12 45
M  V30 27 1 13 16
M  V30 28 1 13 46
M  V30 29 1 13 47
M  V30 30 1 14 20
M  V30 31 1 14 21
M  V30 32 1 15 17
M  V30 33 1 15 48
M  V30 34 1 15 49
M  V30 35 2 16 17
M  V30 36 1 17 18
M  V30 37 2 18 19
M  V30 38 1 18 22
M  V30 39 1 19 23
M  V30 40 1 20 51
M  V30 41 1 20 52
M  V30 42 1 20 53
M  V30 43 1 21 54
M  V30 44 1 21 55
M  V30 45 1 21 56
M  V30 46 2 22 24
M  V30 47 1 22 25
M  V30 48 2 23 26
M  V30 49 1 23 28
M  V30 50 1 24 26
M  V30 51 2 25 27
M  V30 52 1 25 29
M  V30 53 1 26 58
M  V30 54 1 27 30
M  V30 55 1 27 31
M  V30 56 2 29 32
M  V30 57 1 29 59
M  V30 58 2 30 33
M  V30 59 1 31 60
M  V30 60 1 31 61
M  V30 61 1 31 62
M  V30 62 1 32 33
M  V30 63 1 32 63
M  V30 64 1 33 64
M  V30 65 1 34 36
M  V30 66 2 36 37
M  V30 67 1 36 38
M  V30 68 1 37 40
M  V30 69 2 38 41
M  V30 70 1 38 67
M  V30 71 1 39 68
M  V30 72 1 39 69
M  V30 73 1 39 70
M  V30 74 2 40 42
M  V30 75 1 41 42
M  V30 76 1 41 71
M  V30 77 1 42 72
M  V30 END BOND
M  V30 END CTAB
M  END
