
     RDKit          3D

  0  0  0  0  0  0  0  0  0  0999 V3000
M  V30 BEGIN CTAB
M  V30 COUNTS 72 77 0 0 1
M  V30 BEGIN ATOM
M  V30 1 F -1.424800 -1.961900 -2.220800 0
M  V30 2 F 4.209700 -1.395200 -0.306600 0
M  V30 3 O -2.112000 1.574700 2.438200 0
M  V30 4 O -4.253200 -1.933800 0.101200 0
M  V30 5 O 1.200200 0.655400 -0.066500 0
M  V30 6 O 1.616800 -1.436400 -2.002600 0
M  V30 7 N -3.179900 -0.598100 0.300400 0
M  V30 8 N 1.358800 -0.393200 -1.048200 0
M  V30 9 N -4.004300 -2.921200 -0.873800 0
M  V30 10 N 2.642500 -1.117900 -1.079400 0
M  V30 11 C -2.400700 1.483600 0.993400 0
M  V30 12 C -1.499200 1.279700 0.762100 0
M  V30 13 C -2.913600 0.692500 1.126700 0
M  V30 14 C -2.433500 2.027700 1.757800 0
M  V30 15 C -1.439600 0.777800 -0.039500 0
M  V30 16 C -2.723900 0.085700 0.469600 0
M  V30 17 C -2.058300 0.102700 -0.055200 0
M  V30 18 C -2.114200 -0.601800 -0.571100 0
M  V30 19 C -2.821800 -1.030400 -0.334500 0
M  V30 20 C -1.912800 2.801400 1.641800 0
M  V30 21 C -3.320900 2.255600 1.964300 0
M  V30 22 C -1.633200 -0.918600 -1.218600 0
M  V30 23 C -3.069000 -1.761900 -0.714300 0
M  V30 24 C -1.874100 -1.649400 -1.603400 0
M  V30 25 C -0.903100 -0.489300 -1.484400 0
M  V30 26 C -2.581000 -2.063900 -1.353900 0
M  V30 27 C -0.138000 -0.655300 -1.134200 0
M  V30 28 C -3.805400 -2.198200 -0.460200 0
M  V30 29 C -0.972700 0.100300 -2.103100 0
M  V30 30 C 0.557300 -0.231600 -1.402800 0
M  V30 31 C -0.058200 -1.288700 -0.469900 0
M  V30 32 C -0.277300 0.524200 -2.371600 0
M  V30 33 C 0.487800 0.358400 -2.021400 0
M  V30 34 C 1.590500 0.077300 -0.358500 0
M  V30 35 C 1.857500 -1.004700 -1.424600 0
M  V30 36 C 2.393300 -0.119400 0.009500 0
M  V30 37 C 2.906800 -0.696700 -0.359400 0
M  V30 38 C 2.638600 0.295600 0.726200 0
M  V30 39 C 3.198200 -1.716900 -1.457000 0
M  V30 40 C 3.676800 -0.848900 0.004100 0
M  V30 41 C 3.401700 0.135400 1.078800 0
M  V30 42 C 3.921700 -0.436300 0.716700 0
M  V30 43 H -2.668900 1.821000 0.471900 0
M  V30 44 H -1.209900 0.929100 1.261400 0
M  V30 45 H -1.130200 1.834500 0.670000 0
M  V30 46 H -2.777600 0.406500 1.721600 0
M  V30 47 H -3.572200 0.834000 1.111500 0
M  V30 48 H -0.813700 0.538000 -0.086900 0
M  V30 49 H -1.546600 1.185500 -0.565700 0
M  V30 50 H -3.700500 -0.764400 0.596400 0
M  V30 51 H -2.058800 3.118500 1.066200 0
M  V30 52 H -1.252700 2.671800 1.666000 0
M  V30 53 H -2.021100 3.235400 2.146600 0
M  V30 54 H -3.632800 2.542900 1.441500 0
M  V30 55 H -3.340300 2.689600 2.480000 0
M  V30 56 H -3.679500 1.723500 2.168600 0
M  V30 57 H -2.128000 1.928700 2.919900 0
M  V30 58 H -2.720200 -2.624400 -1.686500 0
M  V30 59 H -1.564200 0.238300 -2.383100 0
M  V30 60 H -0.286200 -1.885100 -0.684300 0
M  V30 61 H 0.572300 -1.396000 -0.264300 0
M  V30 62 H -0.406800 -1.101400 0.074700 0
M  V30 63 H -0.331500 0.983700 -2.853100 0
M  V30 64 H 1.025400 0.692700 -2.235400 0
M  V30 65 H -3.677700 -3.177300 -1.337300 0
M  V30 66 H -4.518400 -3.235400 -0.710400 0
M  V30 67 H 2.242800 0.747500 1.019200 0
M  V30 68 H 3.310600 -2.222700 -1.027800 0
M  V30 69 H 3.770400 -1.412900 -1.638500 0
M  V30 70 H 2.931800 -1.982900 -2.014400 0
M  V30 71 H 3.589600 0.457000 1.632800 0
M  V30 72 H 4.518400 -0.564500 0.987700 0
M  V30 END ATOM
M  V30 BEGIN BOND
M  V30 1 1 1 24
M  V30 2 1 2 40
M  V30 3 1 3 14
M  V30 4 1 3 57
M  V30 5 2 4 28
M  V30 6 2 5 34
M  V30 7 2 6 35
M  V30 8 1 7 16
M  V30 9 1 7 19
M  V30 10 1 7 50
M  V30 11 1 8 30
M  V30 12 1 8 34 CFG=1
M  V30 13 1 8 35
M  V30 14 1 9 28
M  V30 15 1 9 65
M  V30 16 1 9 66
M  V30 17 1 10 35
M  V30 18 1 10 37
M  V30 19 1 10 39
M  V30 20 1 11 12
M  V30 21 1 11 13
M  V30 22 1 11 14
M  V30 23 1 11 43
M  V30 24 1 12 15
M  V30 25 1 12 44
M  V30 26 1 12 45
M  V30 27 1 13 16
M  V30 28 1 13 46
M  V30 29 1 13 47
M  V30 30 1 14 20
M  V30 31 1 14 21
M  V30 32 1 15 17
M  V30 33 1 15 48
M  V30 34 1 15 49
M  V30 35 2 16 17
M  V30 36 1 17 18
M  V30 37 2 18 19
M  V30 38 1 18 22
M  V30 39 1 19 23
M  V30 40 1 20 51
M  V30 41 1 20 52
M  V30 42 1 20 53
M  V30 43 1 21 54
M  V30 44 1 21 55
M  V30 45 1 21 56
M  V30 46 2 22 24
M  V30 47 1 22 25
M  V30 48 2 23 26
M  V30 49 1 23 28
M  V30 50 1 24 26
M  V30 51 2 25 27
M  V30 52 1 25 29
M  V30 53 1 26 58
M  V30 54 1 30 27
M  V30 55 1 27 31
M  V30 56 2 29 32
M  V30 57 1 29 59
M  V30 58 2 30 33
M  V30 59 1 31 60
M  V30 60 1 31 61
M  V30 61 1 31 62
M  V30 62 1 32 33
M  V30 63 1 32 63
M  V30 64 1 33 64
M  V30 65 1 34 36
M  V30 66 2 36 37
M  V30 67 1 36 38
M  V30 68 1 37 40
M  V30 69 2 38 41
M  V30 70 1 38 67
M  V30 71 1 39 68
M  V30 72 1 39 69
M  V30 73 1 39 70
M  V30 74 2 40 42
M  V30 75 1 41 42
M  V30 76 1 41 71
M  V30 77 1 42 72
M  V30 END BOND
M  V30 END CTAB
M  END
