
     RDKit          3D

  0  0  0  0  0  0  0  0  0  0999 V3000
M  V30 BEGIN CTAB
M  V30 COUNTS 66 72 0 0 1
M  V30 BEGIN ATOM
M  V30 1 Cl 2.604800 0.408300 -1013.117600 0
M  V30 2 O -3.525300 -0.009900 -1016.036400 0
M  V30 3 N -2.495300 0.077900 -1015.248900 0
M  V30 4 N 0.587500 0.283400 -1014.653100 0
M  V30 5 N 0.980600 -0.250500 -1015.023000 0
M  V30 6 N 3.238300 2.668700 -1015.430900 0
M  V30 7 N 2.700100 2.552100 -1015.953500 0
M  V30 8 N 4.029400 -1.709100 -1016.161200 0
M  V30 9 N 4.239900 -2.152600 -1015.582400 0
M  V30 10 C -1.370800 0.160100 -1015.069600 0
M  V30 11 C -0.744000 -0.409500 -1014.967400 0
M  V30 12 C -0.820500 0.803400 -1014.965000 0
M  V30 13 C -0.299100 0.226500 -1014.542000 0
M  V30 14 C -1.853500 0.130200 -1015.764700 0
M  V30 15 C -2.048500 0.116000 -1014.557100 0
M  V30 16 C -3.249000 0.014600 -1015.400300 0
M  V30 17 C 1.021500 0.863300 -1014.389900 0
M  V30 18 C 1.749100 0.697100 -1014.602500 0
M  V30 19 C 1.689800 0.005200 -1014.990200 0
M  V30 20 C -3.742500 -0.024900 -1014.730600 0
M  V30 21 C 0.701800 1.508900 -1013.968200 0
M  V30 22 C 2.388300 1.166000 -1014.437800 0
M  V30 23 C 2.293800 -0.421000 -1015.331600 0
M  V30 24 C -4.487400 -0.087400 -1014.830200 0
M  V30 25 C 2.581900 1.726700 -1014.965200 0
M  V30 26 C 2.827000 1.095400 -1013.783000 0
M  V30 27 C 2.677300 -0.964300 -1014.902900 0
M  V30 28 C 2.488500 -0.286500 -1016.084100 0
M  V30 29 C 3.198800 2.192000 -1014.823200 0
M  V30 30 C 3.443700 1.570300 -1013.654700 0
M  V30 31 C 3.264300 -1.373300 -1015.246500 0
M  V30 32 C 2.302000 1.978600 -1015.668200 0
M  V30 33 C 3.071600 -0.689100 -1016.434100 0
M  V30 34 C 3.643500 2.131000 -1014.174400 0
M  V30 35 C 3.446500 -1.228300 -1015.996700 0
M  V30 36 C 3.917400 1.500900 -1012.957300 0
M  V30 37 C 3.773100 -1.946900 -1015.026900 0
M  V30 38 C 4.419700 -1.775400 -1016.875200 0
M  V30 39 H -0.482000 -0.592000 -1015.498200 0
M  V30 40 H -0.873700 -0.910200 -1014.629500 0
M  V30 41 H -1.013300 1.282400 -1014.625800 0
M  V30 42 H -0.576000 1.018800 -1015.491800 0
M  V30 43 H -0.412100 0.210100 -1013.930800 0
M  V30 44 H -1.791900 -0.370600 -1016.120800 0
M  V30 45 H -1.867700 0.641300 -1016.111200 0
M  V30 46 H -2.170600 0.619200 -1014.220200 0
M  V30 47 H -2.097300 -0.392900 -1014.210500 0
M  V30 48 H -3.505800 -0.003600 -1014.166800 0
M  V30 49 H 0.363600 1.866700 -1014.342400 0
M  V30 50 H 1.144000 1.863900 -1013.721400 0
M  V30 51 H 0.342900 1.316200 -1013.502900 0
M  V30 52 H -4.857600 -0.117100 -1014.342100 0
M  V30 53 H -4.753000 -0.111000 -1015.381600 0
M  V30 54 H 2.527400 -1.072200 -1014.317400 0
M  V30 55 H 2.187300 0.136900 -1016.412900 0
M  V30 56 H 1.824400 1.768600 -1015.985600 0
M  V30 57 H 3.222000 -0.583800 -1017.018500 0
M  V30 58 H 4.120600 2.505100 -1014.084500 0
M  V30 59 H 3.618500 3.085800 -1015.523500 0
M  V30 60 H 3.575500 1.597900 -1012.450900 0
M  V30 61 H 4.376300 1.916600 -1012.947800 0
M  V30 62 H 4.180000 0.941600 -1012.926900 0
M  V30 63 H 3.822400 -2.222800 -1014.484400 0
M  V30 64 H 4.676800 -1.229900 -1017.007700 0
M  V30 65 H 4.008600 -1.934200 -1017.307700 0
M  V30 66 H 4.857600 -2.208900 -1016.832900 0
M  V30 END ATOM
M  V30 BEGIN BOND
M  V30 1 1 1 26
M  V30 2 2 2 16
M  V30 3 1 3 14
M  V30 4 1 3 15
M  V30 5 1 3 16
M  V30 6 1 4 5
M  V30 7 1 4 13
M  V30 8 1 4 17
M  V30 9 2 5 19
M  V30 10 1 6 7
M  V30 11 1 6 29
M  V30 12 1 6 59
M  V30 13 2 7 32
M  V30 14 1 8 9
M  V30 15 1 8 35
M  V30 16 1 8 38
M  V30 17 2 9 37
M  V30 18 1 10 11
M  V30 19 1 10 12
M  V30 20 1 10 14
M  V30 21 1 10 15
M  V30 22 1 11 13
M  V30 23 1 11 39
M  V30 24 1 11 40
M  V30 25 1 12 13
M  V30 26 1 12 41
M  V30 27 1 12 42
M  V30 28 1 13 43
M  V30 29 1 14 44
M  V30 30 1 14 45
M  V30 31 1 15 46
M  V30 32 1 15 47
M  V30 33 1 16 20
M  V30 34 2 17 18
M  V30 35 1 17 21
M  V30 36 1 18 19 CFG=3
M  V30 37 1 18 22
M  V30 38 1 19 23
M  V30 39 2 20 24
M  V30 40 1 20 48
M  V30 41 1 21 49
M  V30 42 1 21 50
M  V30 43 1 21 51
M  V30 44 1 22 25
M  V30 45 2 22 26
M  V30 46 2 23 27
M  V30 47 1 23 28
M  V30 48 1 24 52
M  V30 49 1 24 53
M  V30 50 2 25 29
M  V30 51 1 25 32
M  V30 52 1 26 30
M  V30 53 1 27 31
M  V30 54 1 27 54
M  V30 55 2 28 33
M  V30 56 1 28 55
M  V30 57 1 29 34
M  V30 58 2 30 34
M  V30 59 1 30 36
M  V30 60 2 31 35
M  V30 61 1 31 37
M  V30 62 1 32 56
M  V30 63 1 33 35
M  V30 64 1 33 57
M  V30 65 1 34 58
M  V30 66 1 36 60
M  V30 67 1 36 61
M  V30 68 1 36 62
M  V30 69 1 37 63
M  V30 70 1 38 64
M  V30 71 1 38 65
M  V30 72 1 38 66
M  V30 END BOND
M  V30 END CTAB
M  END
