29
CC1C=CC2C(C=CC2(C)C)=CC=1
C      4.015562    0.650406   -0.323472
C      2.644123    0.137240    0.016094
C      1.832115   -0.404828   -1.103153
C      0.495558   -0.407112   -1.161490
C     -0.370972    0.198802   -0.081175
C     -0.117700   -0.486828    1.219842
C     -1.361818   -0.951618    1.794667
C     -2.368428   -0.639022    1.004897
C     -1.934556    0.073101   -0.248183
C     -2.416097   -0.748327   -1.461757
C     -2.589383    1.466354   -0.285360
C      1.058997   -0.555591    1.847461
C      2.308319    0.026276    1.317909
H      4.300388    1.489905    0.346855
H      4.756479   -0.169579   -0.216636
H      4.044851    1.027880   -1.367918
H      2.368205   -0.770551   -1.971272
H      0.058842   -0.804038   -2.065056
H     -0.078597    1.267983    0.028454
H     -1.467334   -1.460420    2.744398
H     -3.397959   -0.876469    1.242971
H     -3.522977   -0.852114   -1.445123
H     -1.982855   -1.771872   -1.444725
H     -2.141480   -0.242649   -2.412102
H     -3.697087    1.380966   -0.326059
H     -2.245203    2.027013   -1.180866
H     -2.320831    2.052033    0.620877
H      1.093211   -0.977187    2.844897
H      3.036627    0.320247    2.065025
