12
c1ccccc1
C     -1.163492   -0.776921    0.001394
C     -1.254532    0.619105    0.013415
C     -0.091040    1.396026    0.012021
C      1.163492    0.776921   -0.001393
C      1.254532   -0.619105   -0.013415
C      0.091040   -1.396026   -0.012021
H     -2.063602   -1.377969    0.002473
H     -2.225073    1.098062    0.023792
H     -0.161471    2.476031    0.021321
H      2.063602    1.377969   -0.002472
H      2.225073   -1.098062   -0.023793
H      0.161472   -2.476031   -0.021321
