8
CS([O-])(=O)=O
C     -0.944111   -0.048625   -0.020941
S      0.828658    0.070769    0.046830
O      1.504164   -0.999430   -1.057358
O      1.251147    1.472004   -0.292609
O      1.302810   -0.273067    1.430352
H     -1.294021    0.204431   -1.042967
H     -1.392761    0.657633    0.707833
H     -1.255886   -1.083714    0.228861
