20
C[C-](c1ccccc1)C
C     -2.099068   -1.306646    0.359836
C     -1.362048   -0.014773    0.118818
C      0.129329    0.001402   -0.011283
C      0.879320   -1.190960    0.088547
C      2.271983   -1.171707   -0.033511
C      2.940417    0.031893   -0.256506
C      2.217717    1.220405   -0.358148
C      0.824867    1.209444   -0.237213
C     -2.157301    1.260480    0.011469
H     -1.755042   -1.761909    1.311997
H     -3.195573   -1.151908    0.432548
H     -1.908591   -2.008422   -0.478887
H      0.400280   -2.144734    0.260912
H      2.833863   -2.093569    0.045212
H      4.018627    0.043588   -0.350564
H      2.737506    2.153999   -0.531231
H      0.302800    2.152361   -0.322248
H     -1.839640    1.967767    0.805864
H     -1.993201    1.721252   -0.985019
H     -3.246246    1.082038    0.129404
