
     RDKit          3D

 98101  0  0  1  0  0  0  0  0999 V2000
    1.6395   -0.3083    2.4500 C   0  0  0  0  0  0  0  0  0  0  0  0
    4.0605   -0.0188    1.8955 C   0  0  0  0  0  0  0  0  0  0  0  0
   -2.4718    0.4551   -0.9866 C   0  0  0  0  0  0  0  0  0  0  0  0
   -1.7332    1.2536   -2.0984 C   0  0  0  0  0  0  0  0  0  0  0  0
   -0.3086    1.2406   -1.8284 O   0  0  0  0  0  0  0  0  0  0  0  0
    0.4986    1.3313   -2.9152 C   0  0  0  0  0  0  0  0  0  0  0  0
    1.9218    1.5133   -2.5515 C   0  0  0  0  0  0  0  0  0  0  0  0
    2.4042    1.5781   -1.3005 C   0  0  0  0  0  0  0  0  0  0  0  0
    3.8617    1.8220   -0.9639 C   0  0  0  0  0  0  0  0  0  0  0  0
    4.6473    0.5253   -0.5848 C   0  0  0  0  0  0  0  0  0  0  0  0
    3.9508   -0.4162    0.4176 C   0  0  0  0  0  0  0  0  0  0  0  0
    0.7827   -1.2520    1.6788 C   0  0  0  0  0  0  0  0  0  0  0  0
   -0.1164   -0.7702    0.8064 C   0  0  0  0  0  0  0  0  0  0  0  0
    3.0542   -0.7811    2.7775 C   0  0  0  0  0  0  0  0  0  0  0  0
   -1.9952   -0.9885   -1.0123 C   0  0  0  0  0  0  0  0  0  0  0  0
   -0.9431   -1.5838   -0.0894 C   0  0  0  0  0  0  0  0  0  0  0  0
   -2.3420   -1.7593    0.1488 O   0  0  0  0  0  0  0  0  0  0  0  0
    1.2422    0.8210    2.7292 O   0  0  0  0  0  0  0  0  0  0  0  0
    3.9562    2.9636    0.0560 C   0  0  0  0  0  0  0  0  0  0  0  0
    5.9468    0.8969   -0.1098 O   0  0  0  0  0  0  0  0  0  0  0  0
    7.0037    0.0473   -0.5760 C   0  0  0  0  0  0  0  0  0  0  0  0
    6.8496   -1.2873   -0.1038 O   0  0  0  0  0  0  0  0  0  0  0  0
    7.8964   -2.1536   -0.5540 C   0  0  0  0  0  0  0  0  0  0  0  0
    9.2487   -1.6731   -0.0303 C   0  0  0  0  0  0  0  0  0  0  0  0
    9.4923   -0.2327   -0.4580 C   0  0  0  0  0  0  0  0  0  0  0  0
    8.3163    0.6538   -0.0491 C   0  0  0  0  0  0  0  0  0  0  0  0
    7.5815   -3.5558   -0.0514 C   0  0  0  0  0  0  0  0  0  0  0  0
   10.6978    0.2462    0.1404 O   0  0  0  0  0  0  0  0  0  0  0  0
    8.5273    1.9780   -0.5658 O   0  0  0  0  0  0  0  0  0  0  0  0
   -4.0018    0.4993   -1.1982 C   0  0  0  0  0  0  0  0  0  0  0  0
   -4.6631   -0.0474   -0.0592 O   0  0  0  0  0  0  0  0  0  0  0  0
   -6.0921   -0.0093   -0.1853 C   0  0  0  0  0  0  0  0  0  0  0  0
   -6.6788   -0.9354    0.9063 C   0  0  0  0  0  0  0  0  0  0  0  0
   -8.2124   -0.7874    0.9488 C   0  0  0  0  0  0  0  0  0  0  0  0
   -8.5602    0.7029    1.1324 C   0  0  0  0  0  0  0  0  0  0  0  0
   -7.9351    1.5052   -0.0239 C   0  0  0  0  0  0  0  0  0  0  0  0
   -6.5135    1.3487   -0.0061 O   0  0  0  0  0  0  0  0  0  0  0  0
   -6.3075   -2.3023    0.6341 O   0  0  0  0  0  0  0  0  0  0  0  0
   -8.7555   -1.2769   -0.2975 O   0  0  0  0  0  0  0  0  0  0  0  0
   -9.9745    0.8813    1.2217 O   0  0  0  0  0  0  0  0  0  0  0  0
   -8.2184    2.9997    0.0946 C   0  0  0  0  0  0  0  0  0  0  0  0
   -6.2270   -3.0989    1.8054 C   0  0  0  0  0  0  0  0  0  0  0  0
   -2.1540    2.7241   -2.1651 C   0  0  0  0  0  0  0  0  0  0  0  0
    0.1395    1.3027   -4.0834 O   0  0  0  0  0  0  0  0  0  0  0  0
    3.3344   -0.5404    4.2590 C   0  0  0  0  0  0  0  0  0  0  0  0
   -9.9878   -1.9654   -0.1336 C   0  0  0  0  0  0  0  0  0  0  0  0
    3.9048    1.0542    2.0222 H   0  0  0  0  0  0  0  0  0  0  0  0
    5.0808   -0.2284    2.2405 H   0  0  0  0  0  0  0  0  0  0  0  0
   -2.2452    0.8923   -0.0070 H   0  0  0  0  0  0  0  0  0  0  0  0
   -1.9349    0.7726   -3.0646 H   0  0  0  0  0  0  0  0  0  0  0  0
    2.5774    1.6191   -3.4100 H   0  0  0  0  0  0  0  0  0  0  0  0
    4.7495   -0.0382   -1.5242 H   0  0  0  0  0  0  0  0  0  0  0  0
    4.3979   -1.4143    0.3268 H   0  0  0  0  0  0  0  0  0  0  0  0
    2.9121   -0.5545    0.1123 H   0  0  0  0  0  0  0  0  0  0  0  0
   -0.2348    0.3093    0.7422 H   0  0  0  0  0  0  0  0  0  0  0  0
    3.1378   -1.8574    2.5852 H   0  0  0  0  0  0  0  0  0  0  0  0
   -2.1494   -1.4639   -1.9742 H   0  0  0  0  0  0  0  0  0  0  0  0
   -0.4172   -2.4474   -0.4897 H   0  0  0  0  0  0  0  0  0  0  0  0
    3.3538    2.7749    0.9488 H   0  0  0  0  0  0  0  0  0  0  0  0
    3.5803    3.8951   -0.3848 H   0  0  0  0  0  0  0  0  0  0  0  0
    4.9889    3.1499    0.3658 H   0  0  0  0  0  0  0  0  0  0  0  0
    6.9947    0.0681   -1.6741 H   0  0  0  0  0  0  0  0  0  0  0  0
    7.8949   -2.1664   -1.6513 H   0  0  0  0  0  0  0  0  0  0  0  0
   10.0616   -2.3164   -0.3873 H   0  0  0  0  0  0  0  0  0  0  0  0
    9.2731   -1.7259    1.0664 H   0  0  0  0  0  0  0  0  0  0  0  0
    9.6408   -0.1817   -1.5437 H   0  0  0  0  0  0  0  0  0  0  0  0
    8.2839    0.7488    1.0437 H   0  0  0  0  0  0  0  0  0  0  0  0
    6.6063   -3.8846   -0.4267 H   0  0  0  0  0  0  0  0  0  0  0  0
    8.3404   -4.2746   -0.3747 H   0  0  0  0  0  0  0  0  0  0  0  0
    7.5194   -3.5767    1.0423 H   0  0  0  0  0  0  0  0  0  0  0  0
   10.7005    1.2113   -0.0181 H   0  0  0  0  0  0  0  0  0  0  0  0
    7.7108    2.4677   -0.3414 H   0  0  0  0  0  0  0  0  0  0  0  0
   -4.3448    1.5297   -1.3194 H   0  0  0  0  0  0  0  0  0  0  0  0
   -4.2799   -0.0723   -2.0919 H   0  0  0  0  0  0  0  0  0  0  0  0
   -6.3739   -0.3663   -1.1847 H   0  0  0  0  0  0  0  0  0  0  0  0
   -6.2540   -0.6303    1.8730 H   0  0  0  0  0  0  0  0  0  0  0  0
   -8.6230   -1.3793    1.7757 H   0  0  0  0  0  0  0  0  0  0  0  0
   -8.1306    1.0341    2.0868 H   0  0  0  0  0  0  0  0  0  0  0  0
   -8.3257    1.1730   -0.9939 H   0  0  0  0  0  0  0  0  0  0  0  0
  -10.1429    1.8001    1.4923 H   0  0  0  0  0  0  0  0  0  0  0  0
   -7.6856    3.5508   -0.6884 H   0  0  0  0  0  0  0  0  0  0  0  0
   -7.8599    3.3914    1.0529 H   0  0  0  0  0  0  0  0  0  0  0  0
   -9.2858    3.2190    0.0011 H   0  0  0  0  0  0  0  0  0  0  0  0
   -5.9527   -4.1154    1.5106 H   0  0  0  0  0  0  0  0  0  0  0  0
   -5.4541   -2.7137    2.4774 H   0  0  0  0  0  0  0  0  0  0  0  0
   -7.1904   -3.1364    2.3210 H   0  0  0  0  0  0  0  0  0  0  0  0
   -3.1765    2.8432   -2.5321 H   0  0  0  0  0  0  0  0  0  0  0  0
   -2.0738    3.1952   -1.1794 H   0  0  0  0  0  0  0  0  0  0  0  0
   -1.4984    3.2903   -2.8357 H   0  0  0  0  0  0  0  0  0  0  0  0
    3.3004    0.5261    4.5075 H   0  0  0  0  0  0  0  0  0  0  0  0
    2.5901   -1.0484    4.8820 H   0  0  0  0  0  0  0  0  0  0  0  0
    4.3236   -0.9209    4.5338 H   0  0  0  0  0  0  0  0  0  0  0  0
  -10.3346   -2.2828   -1.1207 H   0  0  0  0  0  0  0  0  0  0  0  0
  -10.7504   -1.3205    0.3089 H   0  0  0  0  0  0  0  0  0  0  0  0
   -9.8443   -2.8573    0.4841 H   0  0  0  0  0  0  0  0  0  0  0  0
    0.9754   -2.3122    1.7801 H   0  0  0  0  0  0  0  0  0  0  0  0
    1.7255    1.4834   -0.4536 H   0  0  0  0  0  0  0  0  0  0  0  0
    4.3653    2.2119   -1.8614 H   0  0  0  0  0  0  0  0  0  0  0  0
  1 14  1  0
  1 18  2  0
  2 14  1  0
  3  4  1  0
  3 30  1  0
  4  5  1  0
  4 43  1  0
  5  6  1  0
  6  7  1  0
  6 44  2  0
  7  8  2  0
  8  9  1  0
  9 10  1  0
  9 19  1  0
 10 11  1  0
 10 20  1  0
 11  2  1  0
 12  1  1  0
 12 13  2  0
 14 45  1  0
 15  3  1  0
 15 17  1  0
 16 13  1  0
 16 15  1  0
 16 17  1  0
 21 20  1  0
 21 22  1  0
 21 26  1  0
 22 23  1  0
 23 24  1  0
 23 27  1  0
 24 25  1  0
 25 26  1  0
 25 28  1  0
 26 29  1  0
 30 31  1  0
 32 31  1  0
 32 33  1  0
 32 37  1  0
 33 34  1  0
 33 38  1  0
 34 35  1  0
 34 39  1  0
 35 36  1  0
 35 40  1  0
 36 37  1  0
 36 41  1  0
 38 42  1  0
 39 46  1  0
  2 47  1  0
  2 48  1  0
  3 49  1  0
  4 50  1  0
  7 51  1  0
  8 97  1  0
  9 98  1  0
 10 52  1  0
 11 53  1  0
 11 54  1  0
 12 96  1  0
 13 55  1  0
 14 56  1  0
 15 57  1  0
 16 58  1  0
 19 59  1  0
 19 60  1  0
 19 61  1  0
 21 62  1  0
 23 63  1  0
 24 64  1  0
 24 65  1  0
 25 66  1  0
 26 67  1  0
 27 68  1  0
 27 69  1  0
 27 70  1  0
 28 71  1  0
 29 72  1  0
 30 73  1  0
 30 74  1  0
 32 75  1  0
 33 76  1  0
 34 77  1  0
 35 78  1  0
 36 79  1  0
 40 80  1  0
 41 81  1  0
 41 82  1  0
 41 83  1  0
 42 84  1  0
 42 85  1  0
 42 86  1  0
 43 87  1  0
 43 88  1  0
 43 89  1  0
 45 90  1  0
 45 91  1  0
 45 92  1  0
 46 93  1  0
 46 94  1  0
 46 95  1  0
M  END
