
     RDKit          3D

 30 30  0  0  0  0  0  0  0  0999 V2000
    3.8045   -0.7137    0.8027 C   0  0  0  0  0  0  0  0  0  0  0  0
    4.6586    0.1298   -0.1314 C   0  0  0  0  0  0  0  0  0  0  0  0
    4.3179    0.6232   -1.1964 O   0  0  0  0  0  0  0  0  0  0  0  0
    5.9273    0.2643    0.3073 O   0  0  0  0  0  0  0  0  0  0  0  0
    2.4098   -0.6463    0.4120 N   0  0  0  0  0  0  0  0  0  0  0  0
    1.6109    0.3949    0.8392 C   0  0  0  0  0  0  0  0  0  0  0  0
    1.9158    1.1601    1.7480 O   0  0  0  0  0  0  0  0  0  0  0  0
    0.2696    0.4779    0.0885 C   0  0  2  0  0  0  0  0  0  0  0  0
   -0.7605   -0.3932    0.8247 C   0  0  0  0  0  0  0  0  0  0  0  0
   -2.1703   -0.2019    0.3140 C   0  0  0  0  0  0  0  0  0  0  0  0
   -2.7418   -1.1324   -0.5642 C   0  0  0  0  0  0  0  0  0  0  0  0
   -4.0366   -0.9436   -1.0493 C   0  0  0  0  0  0  0  0  0  0  0  0
   -4.7710    0.1757   -0.6622 C   0  0  0  0  0  0  0  0  0  0  0  0
   -4.2121    1.1069    0.2112 C   0  0  0  0  0  0  0  0  0  0  0  0
   -2.9171    0.9206    0.6971 C   0  0  0  0  0  0  0  0  0  0  0  0
    0.4743    0.0323   -1.3205 N   0  0  0  0  0  0  0  0  0  0  0  0
    3.9201   -0.3529    1.8288 H   0  0  0  0  0  1  0  0  0  0  0  0
    4.1203   -1.7572    0.7254 H   0  0  0  0  0  1  0  0  0  0  0  0
    6.3550    0.8275   -0.3715 H   0  0  0  0  0  1  0  0  0  0  0  0
    2.1495   -0.9848   -0.5142 H   0  0  0  0  0  1  0  0  0  0  0  0
   -0.0368    1.5304    0.0717 H   0  0  0  0  0  1  0  0  0  0  0  0
   -0.4817   -1.4540    0.7608 H   0  0  0  0  0  1  0  0  0  0  0  0
   -0.7480   -0.1619    1.8985 H   0  0  0  0  0  1  0  0  0  0  0  0
   -2.1798   -2.0103   -0.8761 H   0  0  0  0  0  1  0  0  0  0  0  0
   -4.4735   -1.6718   -1.7278 H   0  0  0  0  0  1  0  0  0  0  0  0
   -5.7801    0.3208   -1.0386 H   0  0  0  0  0  1  0  0  0  0  0  0
   -4.7858    1.9781    0.5161 H   0  0  0  0  0  1  0  0  0  0  0  0
   -2.4960    1.6550    1.3805 H   0  0  0  0  0  1  0  0  0  0  0  0
    1.0826    0.7164   -1.7788 H   0  0  0  0  0  1  0  0  0  0  0  0
   -0.4252    0.1101   -1.8013 H   0  0  0  0  0  1  0  0  0  0  0  0
  1  2  1  0
  2  3  2  0
  2  4  1  0
  1  5  1  0
  5  6  1  0
  6  7  2  0
  8  6  1  1
  8  9  1  0
  9 10  1  0
 10 11  2  0
 11 12  1  0
 12 13  2  0
 13 14  1  0
 14 15  2  0
  8 16  1  0
 15 10  1  0
  1 17  1  0
  1 18  1  0
  4 19  1  0
  5 20  1  0
  8 21  1  0
  9 22  1  0
  9 23  1  0
 11 24  1  0
 12 25  1  0
 13 26  1  0
 14 27  1  0
 15 28  1  0
 16 29  1  0
 16 30  1  0
M  END
