
     RDKit          3D

 17 16  0  0  0  0  0  0  0  0999 V2000
   -1.7910   -0.4061    0.3630 C   0  0  0  0  0  0  0  0  0  0  0  0
   -0.7464   -0.4347   -0.7493 C   0  0  2  0  0  0  0  0  0  0  0  0
    0.7131   -0.2400   -0.2787 C   0  0  1  0  0  0  0  0  0  0  0  0
    0.9090    1.1255    0.3918 C   0  0  0  0  0  0  0  0  0  0  0  0
    0.2291    2.1267    0.2202 O   0  0  0  0  0  0  0  0  0  0  0  0
    2.0055    1.1764    1.1847 O   0  0  0  0  0  0  0  0  0  0  0  0
    1.1527   -1.3286    0.6270 N   0  0  0  0  0  0  0  0  0  0  0  0
   -1.0931    0.5317   -1.7469 O   0  0  0  0  0  0  0  0  0  0  0  0
   -1.8332    0.5706    0.8552 H   0  0  0  0  0  1  0  0  0  0  0  0
   -1.5991   -1.1724    1.1195 H   0  0  0  0  0  1  0  0  0  0  0  0
   -2.7884   -0.5803   -0.0561 H   0  0  0  0  0  1  0  0  0  0  0  0
   -0.8148   -1.4099   -1.2471 H   0  0  0  0  0  1  0  0  0  0  0  0
    1.3719   -0.2276   -1.1564 H   0  0  0  0  0  1  0  0  0  0  0  0
    2.0036    2.0922    1.5338 H   0  0  0  0  0  1  0  0  0  0  0  0
    2.0630   -1.0596    1.0108 H   0  0  0  0  0  1  0  0  0  0  0  0
    1.3091   -2.1730    0.0786 H   0  0  0  0  0  1  0  0  0  0  0  0
   -1.0911    1.4091   -1.3123 H   0  0  0  0  0  1  0  0  0  0  0  0
  2  1  1  1
  2  3  1  0
  3  4  1  1
  4  5  2  0
  4  6  1  0
  3  7  1  0
  2  8  1  0
  1  9  1  0
  1 10  1  0
  1 11  1  0
  2 12  1  0
  3 13  1  0
  6 14  1  0
  7 15  1  0
  7 16  1  0
  8 17  1  0
M  END
